api/pglib_opf_case3375wp_mp__api.m
%%%%%%%%%%%%%%%%%%%%%%%%%%%%%%%%%%%%%%%%%%%%%%%%%%%%%%%%%%%%%%%%%%%%%%%%%%%
%%%%                                                                  %%%%%
%%%%    IEEE PES Power Grid Library - Optimal Power Flow - v17.07     %%%%%
%%%%          (https://github.com/power-grid-lib/pglib-opf)           %%%%%
%%%%             Benchmark Group - Active Power Increase              %%%%%
%%%%                         27 - June - 2017                         %%%%%
%%%%                                                                  %%%%%
%%%%%%%%%%%%%%%%%%%%%%%%%%%%%%%%%%%%%%%%%%%%%%%%%%%%%%%%%%%%%%%%%%%%%%%%%%%
function mpc = pglib_opf_case3375wp_mp__api
mpc.version = '2';
mpc.baseMVA = 100.0;

%% area data
%	area	refbus
mpc.areas = [
	1	 1;
];

%% bus data
%	bus_i	type	Pd	Qd	Gs	Bs	area	Vm	Va	baseKV	zone	Vmax	Vmin
mpc.bus = [
	10000	 1	 0.00	 0.00	 0.0	 0.0	 0	    1.03861	   -0.21211	 400.0	 0	    1.05000	    0.95000;
	10001	 1	 0.00	 0.00	 0.0	 0.0	 0	    1.04677	   -1.78572	 400.0	 0	    1.05000	    0.95000;
	10002	 1	 0.00	 0.00	 0.0	 0.0	 0	    1.09427	    1.95438	 220.0	 0	    1.11000	    0.95000;
	10003	 1	 0.00	 0.00	 0.0	 0.0	 0	    1.04586	   -3.35697	 400.0	 0	    1.05000	    0.95000;
	10004	 1	 0.00	 0.00	 0.0	 0.0	 0	    1.04305	   -1.96822	 400.0	 0	    1.05000	    0.95000;
	10005	 1	 0.00	 0.00	 0.0	 0.0	 0	    1.04763	   -0.79597	 400.0	 0	    1.05000	    0.95000;
	10006	 1	 0.00	 0.00	 0.0	 0.0	 0	    1.03867	    1.89489	 400.0	 0	    1.05000	    0.95000;
	10007	 1	 0.00	 0.00	 0.0	 0.0	 0	    1.10137	    4.03653	 220.0	 0	    1.11000	    0.95000;
	10008	 1	 0.00	 0.00	 0.0	 0.0	 0	    1.08141	   -1.19646	 220.0	 0	    1.11000	    0.95000;
	10009	 1	 0.00	 0.00	 0.0	 0.0	 0	    1.04833	   -1.70409	 400.0	 0	    1.05000	    0.95000;
	10010	 1	 0.00	 0.00	 0.0	 0.0	 0	    1.04957	    2.66887	 400.0	 0	    1.05000	    0.95000;
	10011	 1	 0.00	 0.00	 0.0	 0.0	 0	    1.04915	   -2.33817	 400.0	 0	    1.05000	    0.95000;
	10012	 1	 0.00	 0.00	 0.0	 0.0	 0	    1.04915	   -2.33817	 400.0	 0	    1.05000	    0.95000;
	10013	 1	 0.00	 0.00	 0.0	 0.0	 0	    1.04500	    0.09855	 400.0	 0	    1.05000	    0.95000;
	10014	 1	 0.00	 0.00	 0.0	 0.0	 0	    1.04526	    0.08270	 400.0	 0	    1.05000	    0.95000;
	10015	 1	 0.00	 0.00	 0.0	 0.0	 0	    1.04692	   -2.65557	 400.0	 0	    1.05000	    0.95000;
	10016	 1	 0.00	 0.00	 0.0	 0.0	 0	    1.04505	    0.13455	 400.0	 0	    1.05000	    0.95000;
	10017	 1	 0.00	 0.00	 0.0	 0.0	 0	    1.04567	    0.31002	 400.0	 0	    1.05000	    0.95000;
	10018	 1	 0.00	 0.00	 0.0	 0.0	 0	    1.04500	    0.13565	 400.0	 0	    1.05000	    0.95000;
	10019	 1	 0.00	 0.00	 0.0	 0.0	 0	    1.04526	    0.08266	 400.0	 0	    1.05000	    0.95000;
	10020	 1	 0.00	 0.00	 0.0	 0.0	 0	    1.04737	   -1.34328	 400.0	 0	    1.05000	    0.95000;
	10021	 1	 0.00	 0.00	 0.0	 0.0	 0	    1.07315	   -4.46113	 220.0	 0	    1.11000	    0.95000;
	10022	 1	 0.00	 0.00	 0.0	 0.0	 0	    1.07238	   -4.65860	 220.0	 0	    1.11000	    0.95000;
	10023	 1	 0.00	 0.00	 0.0	 0.0	 0	    1.04348	    0.50199	 400.0	 0	    1.05000	    0.95000;
	10024	 1	 0.00	 0.00	 0.0	 0.0	 0	    1.04350	    0.45910	 400.0	 0	    1.05000	    0.95000;
	10025	 1	 0.00	 0.00	 0.0	 0.0	 0	    1.04343	    0.48224	 400.0	 0	    1.05000	    0.95000;
	10026	 1	 0.00	 0.00	 0.0	 0.0	 0	    1.03947	    3.61197	 400.0	 0	    1.05000	    0.95000;
	10027	 1	 0.00	 0.00	 0.0	 0.0	 0	    1.03935	    3.73823	 400.0	 0	    1.05000	    0.95000;
	10028	 1	 0.00	 0.00	 0.0	 0.0	 0	    1.04018	    4.37020	 400.0	 0	    1.05000	    0.95000;
	10029	 1	 0.00	 0.00	 0.0	 0.0	 0	    1.04994	    3.57681	 400.0	 0	    1.05000	    0.95000;
	10030	 1	 0.00	 0.00	 0.0	 0.0	 0	    1.04988	    3.54706	 400.0	 0	    1.05000	    0.95000;
	10031	 1	 0.00	 0.00	 0.0	 0.0	 0	    1.08252	    0.73488	 220.0	 0	    1.11000	    0.95000;
	10032	 1	 0.00	 0.00	 0.0	 0.0	 0	    1.03982	    3.72054	 400.0	 0	    1.05000	    0.95000;
	10033	 1	 0.00	 0.00	 0.0	 0.0	 0	    1.03979	    3.71801	 400.0	 0	    1.05000	    0.95000;
	10034	 1	 0.00	 0.00	 0.0	 0.0	 0	    1.04231	   -2.53797	 400.0	 0	    1.05000	    0.95000;
	10035	 1	 0.00	 0.00	 0.0	 0.0	 0	    1.07807	    2.42432	 220.0	 0	    1.11000	    0.95000;
	10036	 1	 0.00	 0.00	 0.0	 0.0	 0	    1.07814	    2.42250	 220.0	 0	    1.11000	    0.95000;
	10037	 1	 0.00	 0.00	 0.0	 0.0	 0	    1.03981	    3.56684	 400.0	 0	    1.05000	    0.95000;
	10038	 1	 0.00	 0.00	 0.0	 0.0	 0	    1.03986	    3.56691	 400.0	 0	    1.05000	    0.95000;
	10039	 1	 0.00	 0.00	 0.0	 0.0	 0	    1.04139	    3.07349	 400.0	 0	    1.05000	    0.95000;
	10040	 1	 0.00	 0.00	 0.0	 0.0	 0	    1.03677	   -1.64329	 400.0	 0	    1.05000	    0.95000;
	10041	 1	 0.00	 0.00	 0.0	 0.0	 0	    1.05000	    3.38142	 400.0	 0	    1.05000	    0.95000;
	10042	 1	 0.00	 0.00	 0.0	 0.0	 0	    1.04811	   -2.97264	 400.0	 0	    1.05000	    0.95000;
	10043	 1	 0.00	 0.00	 0.0	 0.0	 0	    1.07939	    1.30115	 220.0	 0	    1.11000	    0.95000;
	10044	 1	 0.00	 0.00	 0.0	 0.0	 0	    1.09345	    3.35745	 220.0	 0	    1.11000	    0.95000;
	10045	 1	 0.00	 0.00	 0.0	 0.0	 0	    1.08260	   -0.98547	 220.0	 0	    1.11000	    0.95000;
	10046	 1	 0.00	 0.00	 0.0	 0.0	 0	    1.07234	   -4.65811	 220.0	 0	    1.11000	    0.95000;
	10047	 1	 0.00	 0.00	 0.0	 0.0	 0	    1.04554	   -4.03755	 400.0	 0	    1.05000	    0.95000;
	10048	 1	 0.00	 0.00	 0.0	 0.0	 0	    1.03713	   -0.47957	 400.0	 0	    1.05000	    0.95000;
	10049	 1	 0.00	 0.00	 0.0	 0.0	 0	    1.04362	   -0.24717	 400.0	 0	    1.05000	    0.95000;
	10050	 1	 0.00	 0.00	 0.0	 0.0	 0	    1.05000	    3.38142	 400.0	 0	    1.05000	    0.95000;
	10051	 1	 0.00	 0.00	 0.0	 0.0	 0	    1.06825	   -4.72788	 220.0	 0	    1.11000	    0.95000;
	10052	 1	 0.00	 0.00	 0.0	 0.0	 0	    1.04192	   -3.88461	 400.0	 0	    1.05000	    0.95000;
	10053	 1	 0.00	 0.00	 0.0	 0.0	 0	    1.08334	    0.97299	 220.0	 0	    1.11000	    0.95000;
	10054	 1	 0.00	 0.00	 0.0	 0.0	 0	    1.08334	    0.97299	 220.0	 0	    1.11000	    0.95000;
	10055	 1	 0.00	 0.00	 0.0	 0.0	 0	    1.07665	   -2.73502	 220.0	 0	    1.11000	    0.95000;
	10056	 1	 0.00	 0.00	 0.0	 0.0	 0	    1.04069	    1.97539	 400.0	 0	    1.05000	    0.95000;
	10057	 1	 0.00	 0.00	 0.0	 0.0	 0	    1.03962	    2.31744	 400.0	 0	    1.05000	    0.95000;
	10058	 1	 0.00	 0.00	 0.0	 0.0	 0	    1.06452	   -2.95599	 220.0	 0	    1.11000	    0.95000;
	10059	 1	 0.00	 0.00	 0.0	 0.0	 0	    1.05000	   -2.71425	 400.0	 0	    1.05000	    0.95000;
	10060	 1	 0.00	 0.00	 0.0	 0.0	 0	    1.03983	    3.56688	 400.0	 0	    1.05000	    0.95000;
	10061	 1	 0.00	 0.00	 0.0	 0.0	 0	    1.04069	    1.97539	 400.0	 0	    1.05000	    0.95000;
	10062	 1	 0.00	 0.00	 0.0	 0.0	 0	    1.04737	    0.38037	 400.0	 0	    1.05000	    0.95000;
	10063	 1	 0.00	 0.00	 0.0	 0.0	 0	    1.04526	    0.08271	 400.0	 0	    1.05000	    0.95000;
	10064	 1	 0.00	 0.00	 0.0	 0.0	 0	    1.06680	   -3.71098	 220.0	 0	    1.11000	    0.95000;
	10065	 1	 0.00	 0.00	 0.0	 0.0	 0	    1.04604	   -1.21936	 400.0	 0	    1.05000	    0.95000;
	10066	 1	 0.00	 0.00	 0.0	 0.0	 0	    1.04819	    0.49037	 400.0	 0	    1.05000	    0.95000;
	10067	 1	 0.00	 0.00	 0.0	 0.0	 0	    1.06704	   -3.30757	 220.0	 0	    1.11000	    0.95000;
	10068	 1	 0.00	 0.00	 0.0	 0.0	 0	    1.04822	   -0.72398	 400.0	 0	    1.05000	    0.95000;
	10069	 1	 0.00	 0.00	 0.0	 0.0	 0	    1.06396	   -7.56264	 220.0	 0	    1.11000	    0.95000;
	10070	 1	 0.00	 0.00	 0.0	 0.0	 0	    1.04910	   -2.33792	 400.0	 0	    1.05000	    0.95000;
	10071	 2	 18.45	 8.00	 0.0	 0.0	 0	    1.09879	    3.45476	 220.0	 0	    1.11000	    0.95000;
	10072	 1	 0.00	 0.00	 0.0	 0.0	 0	    1.08213	    0.66706	 220.0	 0	    1.11000	    0.95000;
	10073	 1	 0.00	 0.00	 0.0	 0.0	 1	    1.08476	    2.39450	 220.0	 0	    1.11000	    0.95000;
	10074	 1	 0.00	 0.00	 0.0	 0.0	 0	    1.08406	    2.42761	 220.0	 0	    1.11000	    0.95000;
	10075	 1	 0.00	 0.00	 0.0	 0.0	 0	    1.08738	    2.53650	 220.0	 0	    1.11000	    0.95000;
	10076	 1	 0.00	 0.00	 0.0	 0.0	 0	    1.04349	    0.45916	 400.0	 0	    1.05000	    0.95000;
	10077	 1	 0.00	 0.00	 0.0	 0.0	 0	    1.04349	    0.45916	 400.0	 0	    1.05000	    0.95000;
	10078	 1	 305.50	 -14.00	 0.0	 0.0	 0	    1.03515	    2.64293	 400.0	 0	    1.05000	    0.95000;
	10079	 2	 -1529.60	 4542.90	 0.0	 0.0	 0	    1.01620	    8.34543	 400.0	 0	    1.05000	    0.95000;
	10080	 2	 -159.10	 -181.00	 0.0	 0.0	 0	    1.03489	    1.49584	 400.0	 0	    1.05000	    0.95000;
	10081	 1	 -1078.30	 -374.10	 0.0	 0.0	 0	    1.03340	    6.46017	 400.0	 0	    1.05000	    0.95000;
	10082	 1	 1087.71	 310.20	 0.0	 0.0	 0	    1.00487	    4.03009	 400.0	 0	    1.05000	    0.95000;
	10083	 1	 111.86	 26.00	 0.0	 0.0	 0	    1.03980	    1.37699	 400.0	 0	    1.05000	    0.95000;
	10084	 1	 0.69	 160.00	 0.0	 0.0	 0	    1.04096	    1.67641	 400.0	 0	    1.05000	    0.95000;
	10085	 1	 186.36	 183.60	 0.0	 0.0	 0	    1.03975	    1.46078	 400.0	 0	    1.05000	    0.95000;
	10086	 1	 332.82	 221.60	 0.0	 0.0	 0	    1.03974	    1.45775	 400.0	 0	    1.05000	    0.95000;
	10087	 1	 0.00	 0.00	 0.0	 0.0	 0	    1.04212	    1.84995	 400.0	 0	    1.05000	    0.95000;
	10088	 1	 0.00	 0.00	 0.0	 0.0	 0	    1.08765	    1.53166	 220.0	 0	    1.11000	    0.95000;
	10089	 1	 0.00	 0.00	 0.0	 0.0	 0	    1.08535	    1.38489	 220.0	 0	    1.11000	    0.95000;
	10090	 2	 316.44	 279.60	 0.0	 0.0	 0	    1.03966	    1.33822	 400.0	 0	    1.05000	    0.95000;
	10091	 1	 108.63	 111.80	 0.0	 0.0	 0	    1.03931	    1.30101	 400.0	 0	    1.05000	    0.95000;
	10092	 1	 0.00	 0.00	 0.0	 0.0	 0	    1.08367	    1.31173	 220.0	 0	    1.11000	    0.95000;
	10093	 1	 0.00	 0.00	 0.0	 0.0	 0	    1.08640	    1.48223	 220.0	 0	    1.11000	    0.95000;
	10094	 2	 0.00	 0.00	 0.0	 0.0	 0	    1.02688	   -1.12488	 400.0	 0	    1.05000	    0.95000;
	10095	 2	 4.40	 -2590.10	 0.0	 0.0	 0	    1.02411	   -1.83186	 400.0	 0	    1.05000	    0.95000;
	10096	 1	 562.77	 79.10	 0.0	 0.0	 0	    1.01211	   -2.60218	 400.0	 0	    1.05000	    0.95000;
	10097	 1	 693.08	 147.90	 0.0	 0.0	 0	    1.01581	   -2.24977	 400.0	 0	    1.05000	    0.95000;
	10098	 1	 607.75	 265.10	 0.0	 0.0	 0	    1.01376	   -1.47354	 400.0	 0	    1.05000	    0.95000;
	10099	 1	 0.00	 0.00	 0.0	 0.0	 0	    1.00586	    5.53816	 400.0	 0	    1.05000	    0.95000;
	10100	 2	 0.00	 0.00	 0.0	 0.0	 0	    1.01184	    8.37728	 400.0	 0	    1.05000	    0.95000;
	10101	 1	 0.00	 0.00	 0.0	 0.0	 0	    1.04995	   -7.82730	 220.0	 0	    1.11000	    0.95000;
	10102	 1	 138.39	 25.00	 0.0	 0.0	 0	    1.06086	   -2.87510	 220.0	 0	    1.11000	    0.95000;
	10103	 1	 0.00	 0.00	 0.0	 0.0	 0	    1.03813	    1.05440	 400.0	 0	    1.05000	    0.95000;
	10104	 2	 230.87	 48.70	 0.0	 0.0	 0	    1.04261	    2.13553	 400.0	 0	    1.05000	    0.95000;
	10105	 1	 0.00	 0.00	 0.0	 0.0	 0	    1.05687	    1.24711	 220.0	 0	    1.11000	    0.95000;
	10106	 1	 0.00	 0.00	 0.0	 0.0	 0	    1.00698	    4.15502	 400.0	 0	    1.05000	    0.95000;
	10107	 1	 0.00	 0.00	 0.0	 0.0	 0	    1.04549	    5.22460	 400.0	 0	    1.05000	    0.95000;
	10108	 1	 0.00	 0.00	 0.0	 0.0	 0	    1.04471	    4.76709	 400.0	 0	    1.05000	    0.95000;
	10109	 1	 0.00	 0.00	 0.0	 0.0	 0	    1.04548	    5.30649	 400.0	 0	    1.05000	    0.95000;
	10110	 1	 0.00	 0.00	 0.0	 0.0	 0	    1.04467	    4.84225	 400.0	 0	    1.05000	    0.95000;
	10111	 1	 0.00	 0.00	 0.0	 0.0	 0	    1.02589	    5.76408	 400.0	 0	    1.05000	    0.95000;
	10112	 1	 0.00	 0.00	 0.0	 0.0	 0	    1.10790	    2.93189	 220.0	 0	    1.11000	    0.95000;
	10113	 1	 0.00	 0.00	 0.0	 0.0	 0	    1.02046	    6.12214	 400.0	 0	    1.05000	    0.95000;
	10114	 1	 0.00	 0.00	 0.0	 0.0	 0	    1.08663	    1.46923	 220.0	 0	    1.11000	    0.95000;
	10115	 2	 0.00	 0.00	 0.0	 0.0	 0	    1.00337	    5.65625	 400.0	 0	    1.05000	    0.95000;
	10116	 2	 0.00	 0.00	 0.0	 0.0	 0	    1.00337	    5.65625	 400.0	 0	    1.05000	    0.95000;
	10117	 1	 0.00	 0.00	 0.0	 0.0	 0	    1.02784	   -0.98146	 400.0	 0	    1.05000	    0.95000;
	10118	 2	 0.00	 0.00	 0.0	 0.0	 0	    1.02365	    8.61453	 400.0	 0	    1.05000	    0.95000;
	10119	 1	 0.00	 0.00	 0.0	 0.0	 0	    1.01339	    4.95021	 400.0	 0	    1.05000	    0.95000;
	10120	 1	 0.00	 0.00	 0.0	 0.0	 0	    1.03751	    0.76035	 400.0	 0	    1.05000	    0.95000;
	10121	 1	 92.26	 20.00	 0.0	 0.0	 0	    1.05887	   -2.42655	 220.0	 0	    1.11000	    0.95000;
	10122	 1	 0.00	 0.00	 0.0	 0.0	 0	    1.04145	   -1.59334	 220.0	 0	    1.11000	    0.95000;
	10123	 1	 0.00	 0.00	 0.0	 0.0	 0	    0.99517	    3.25137	 400.0	 0	    1.05000	    0.95000;
	10124	 1	 0.00	 0.00	 0.0	 0.0	 0	    1.04933	    6.03551	 400.0	 0	    1.05000	    0.95000;
	10125	 1	 0.00	 0.00	 0.0	 0.0	 0	    1.01643	    3.82138	 400.0	 0	    1.05000	    0.95000;
	10126	 2	 0.00	 0.00	 0.0	 0.0	 0	    1.01132	    5.36921	 400.0	 0	    1.05000	    0.95000;
	10127	 1	 0.00	 0.00	 0.0	 0.0	 0	    1.09238	    0.93016	 220.0	 0	    1.11000	    0.95000;
	10128	 1	 0.00	 0.00	 0.0	 0.0	 0	    1.09238	    0.93016	 220.0	 0	    1.11000	    0.95000;
	10129	 2	 0.23	 100.00	 0.0	 0.0	 0	    1.04440	    6.93102	 400.0	 0	    1.05000	    0.95000;
	10130	 1	 0.00	 0.00	 0.0	 0.0	 0	    1.04450	    6.90490	 400.0	 0	    1.05000	    0.95000;
	10131	 1	 0.00	 0.00	 0.0	 0.0	 0	    1.01195	    4.59217	 400.0	 0	    1.05000	    0.95000;
	10132	 2	 0.00	 0.00	 0.0	 0.0	 0	    1.02357	    5.45155	 400.0	 0	    1.05000	    0.95000;
	10133	 1	 0.00	 0.00	 0.0	 0.0	 0	    1.05000	    2.97976	 400.0	 0	    1.05000	    0.95000;
	10134	 1	 0.00	 0.00	 0.0	 0.0	 0	    1.04732	    2.48604	 400.0	 0	    1.05000	    0.95000;
	10135	 1	 0.00	 0.00	 0.0	 0.0	 0	    1.05166	   -2.31312	 220.0	 0	    1.11000	    0.95000;
	10136	 1	 0.00	 0.00	 0.0	 0.0	 0	    1.06441	    1.63042	 220.0	 0	    1.11000	    0.95000;
	10137	 1	 0.00	 0.00	 0.0	 0.0	 0	    1.04954	   -9.72792	 220.0	 0	    1.11000	    0.95000;
	10138	 1	 0.00	 0.00	 0.0	 0.0	 0	    1.03597	    0.41976	 400.0	 0	    1.05000	    0.95000;
	10139	 2	 0.00	 0.00	 0.0	 0.0	 0	    1.04262	    6.94867	 400.0	 0	    1.05000	    0.95000;
	10140	 2	 0.00	 0.00	 0.0	 0.0	 0	    1.04102	    6.25113	 400.0	 0	    1.05000	    0.95000;
	10141	 2	 0.00	 0.00	 0.0	 0.0	 0	    1.02089	    6.96082	 400.0	 0	    1.05000	    0.95000;
	10142	 1	 0.00	 0.00	 0.0	 0.0	 0	    1.03841	    0.49027	 400.0	 0	    1.05000	    0.95000;
	10143	 1	 0.00	 0.00	 0.0	 0.0	 0	    1.03664	    5.08905	 400.0	 0	    1.05000	    0.95000;
	10144	 1	 0.00	 0.00	 0.0	 0.0	 0	    1.03668	    5.09629	 400.0	 0	    1.05000	    0.95000;
	10145	 1	 0.00	 0.00	 0.0	 0.0	 0	    1.01060	    4.63553	 400.0	 0	    1.05000	    0.95000;
	10146	 2	 0.00	 0.00	 0.0	 0.0	 0	    1.04734	    4.45268	 220.0	 0	    1.11000	    0.95000;
	10147	 1	 0.00	 0.00	 0.0	 0.0	 0	    1.02445	    4.30439	 400.0	 0	    1.05000	    0.95000;
	10148	 1	 0.00	 0.00	 0.0	 0.0	 0	    1.06671	    2.01876	 220.0	 0	    1.11000	    0.95000;
	10149	 1	 0.00	 0.00	 0.0	 0.0	 0	    1.06668	    2.01603	 220.0	 0	    1.11000	    0.95000;
	10150	 2	 0.00	 0.00	 0.0	 0.0	 0	    1.03888	    1.11440	 400.0	 0	    1.05000	    0.95000;
	10151	 1	 0.00	 0.00	 0.0	 0.0	 0	    1.00621	    5.29518	 400.0	 0	    1.05000	    0.95000;
	10152	 1	 0.00	 0.00	 0.0	 0.0	 0	    1.04675	    5.31573	 400.0	 0	    1.05000	    0.95000;
	10153	 1	 0.00	 0.00	 0.0	 0.0	 0	    1.02731	    5.90192	 400.0	 0	    1.05000	    0.95000;
	10154	 1	 92.26	 20.00	 0.0	 0.0	 0	    1.03977	    3.60168	 220.0	 0	    1.11000	    0.95000;
	10155	 1	 0.00	 0.00	 0.0	 0.0	 0	    1.07738	    0.98098	 220.0	 0	    1.11000	    0.95000;
	10156	 1	 0.00	 0.00	 0.0	 0.0	 0	    1.02935	    2.16052	 400.0	 0	    1.05000	    0.95000;
	10157	 1	 0.00	 0.00	 0.0	 0.0	 0	    1.08589	    1.66219	 220.0	 0	    1.11000	    0.95000;
	10158	 1	 0.00	 0.00	 0.0	 0.0	 0	    1.01544	    5.22779	 400.0	 0	    1.05000	    0.95000;
	10159	 1	 0.00	 0.00	 0.0	 0.0	 0	    1.11000	    3.09251	 220.0	 0	    1.11000	    0.95000;
	10160	 1	 0.00	 0.00	 0.0	 0.0	 0	    1.07427	   -9.66833	 220.0	 0	    1.11000	    0.95000;
	10161	 1	 0.00	 0.00	 0.0	 0.0	 0	    1.01809	    4.22048	 400.0	 0	    1.05000	    0.95000;
	10162	 1	 0.00	 0.00	 0.0	 0.0	 0	    1.05171	   -0.55916	 220.0	 0	    1.11000	    0.95000;
	10163	 1	 0.00	 0.00	 0.0	 0.0	 0	    1.09119	    0.35599	 220.0	 0	    1.11000	    0.95000;
	10164	 1	 0.00	 0.00	 0.0	 0.0	 0	    1.03483	    1.49422	 400.0	 0	    1.05000	    0.95000;
	10165	 1	 0.00	 0.00	 0.0	 0.0	 0	    1.03216	    1.17686	 400.0	 0	    1.05000	    0.95000;
	10166	 1	 0.00	 0.00	 0.0	 0.0	 0	    1.06904	   -1.75693	 220.0	 0	    1.11000	    0.95000;
	10167	 1	 0.00	 0.00	 0.0	 0.0	 0	    1.02282	    4.80243	 400.0	 0	    1.05000	    0.95000;
	10168	 1	 0.00	 0.00	 0.0	 0.0	 0	    1.02282	    4.80243	 400.0	 0	    1.05000	    0.95000;
	10169	 1	 0.00	 0.00	 0.0	 0.0	 0	    1.02322	    4.85676	 400.0	 0	    1.05000	    0.95000;
	10170	 1	 0.00	 0.00	 0.0	 0.0	 0	    1.02322	    4.85676	 400.0	 0	    1.05000	    0.95000;
	10171	 2	 -104.80	 -159.00	 0.0	 0.0	 0	    1.02142	   -1.11591	 400.0	 0	    1.05000	    0.95000;
	10172	 1	 247.40	 -57.50	 0.0	 0.0	 0	    1.02414	   -1.83212	 400.0	 0	    1.05000	    0.95000;
	10173	 1	 247.40	 -57.50	 0.0	 0.0	 0	    1.02414	   -1.83212	 400.0	 0	    1.05000	    0.95000;
	10174	 1	 428.42	 403.50	 0.0	 0.0	 0	    1.01143	   -2.62873	 400.0	 0	    1.05000	    0.95000;
	10176	 2	 -249.90	 162.60	 0.0	 0.0	 0	    1.01618	   -0.79664	 400.0	 0	    1.05000	    0.95000;
	10177	 2	 -249.90	 162.60	 0.0	 0.0	 0	    1.01636	   -0.71679	 400.0	 0	    1.05000	    0.95000;
	10178	 1	 60.54	 207.20	 0.0	 0.0	 0	    1.02995	    2.95317	 400.0	 0	    1.05000	    0.95000;
	10179	 1	 437.65	 54.60	 0.0	 0.0	 0	    1.03818	   -1.06143	 400.0	 0	    1.05000	    0.95000;
	10180	 1	 73.60	 -95.60	 0.0	 0.0	 0	    1.08819	   -4.30982	 220.0	 0	    1.11000	    0.95000;
	10181	 1	 73.60	 -95.60	 0.0	 0.0	 0	    1.08819	   -4.30982	 220.0	 0	    1.11000	    0.95000;
	10182	 1	 107.20	 -44.40	 0.0	 0.0	 0	    1.05000	   -0.51806	 400.0	 0	    1.05000	    0.95000;
	10183	 1	 99.18	 8.00	 0.0	 0.0	 0	    1.04790	    2.39506	 400.0	 0	    1.05000	    0.95000;
	10184	 1	 80.73	 49.00	 0.0	 0.0	 0	    1.05182	   -1.68217	 220.0	 0	    1.11000	    0.95000;
	10185	 1	 0.00	 0.00	 0.0	 0.0	 0	    1.05000	   -0.30568	 400.0	 0	    1.05000	    0.95000;
	10186	 2	 0.00	 0.00	 0.0	 0.0	 0	    1.08372	    4.37778	 220.0	 0	    1.11000	    0.95000;
	10187	 2	 0.00	 0.00	 0.0	 0.0	 0	    1.08491	    2.66932	 220.0	 0	    1.11000	    0.95000;
	10188	 2	 0.00	 0.00	 0.0	 0.0	 0	    1.04542	    3.87233	 400.0	 0	    1.05000	    0.95000;
	10189	 2	 10.20	 0.00	 0.0	 0.0	 0	    1.04633	    3.15031	 400.0	 0	    1.05000	    0.95000;
	10190	 2	 0.00	 0.00	 0.0	 0.0	 0	    1.04599	    4.04785	 400.0	 0	    1.05000	    0.95000;
	10191	 2	 0.00	 0.00	 0.0	 0.0	 0	    1.04569	    3.86390	 400.0	 0	    1.05000	    0.95000;
	10192	 2	 0.00	 0.00	 0.0	 0.0	 0	    1.07901	    8.97791	 220.0	 0	    1.11000	    0.95000;
	10193	 1	 0.00	 0.00	 0.0	 0.0	 0	    1.07898	    8.97003	 220.0	 0	    1.11000	    0.95000;
	10194	 2	 0.00	 0.00	 0.0	 0.0	 0	    1.04399	    3.92778	 400.0	 0	    1.05000	    0.95000;
	10195	 1	 0.00	 0.00	 0.0	 0.0	 0	    1.04468	    3.82601	 400.0	 0	    1.05000	    0.95000;
	10196	 2	 0.00	 0.00	 0.0	 0.0	 0	    1.03978	   -0.46689	 400.0	 0	    1.05000	    0.95000;
	10197	 1	 340.20	 51.90	 0.0	 0.0	 0	    1.04449	    0.73487	 400.0	 0	    1.05000	    0.95000;
	10198	 1	 0.00	 0.00	 0.0	 0.0	 0	    1.04657	    2.22449	 400.0	 0	    1.05000	    0.95000;
	10199	 1	 355.19	 40.00	 0.0	 0.0	 0	    1.07851	    1.40991	 220.0	 0	    1.11000	    0.95000;
	10200	 1	 0.00	 0.00	 0.0	 0.0	 0	    1.07854	    1.41833	 220.0	 0	    1.11000	    0.95000;
...
];

%% generator data
%	bus	Pg	Qg	Qmax	Qmin	Vg	mBase	status	Pmax	Pmin	Pc1	Pc2	Qc1min	Qc1max	Qc2min	Qc2max	ramp_agc	ramp_10	ramp_30	ramp_q	apf
mpc.gen = [
	10071	 66.95	 -0.677	 111.0	 -111.0	 1.09879	 285.0	 1	 221	 66.95	 0.0	 0.0	 0.0	 0.0	 0.0	 0.0	 0.0	 0.0	 0.0	 0.0	 0.0; % NG
	10079	 481.0	 4474.847	 5097.6	 -5097.6	 1.0162	 2031.0	 1	 481	 179.95	 0.0	 0.0	 0.0	 0.0	 0.0	 0.0	 0.0	 0.0	 0.0	 0.0	 0.0; % COW
	10080	 3.8	 -67.199	 67.2	 -67.2	 1.03489	 119.0	 1	 68	 3.8	 0.0	 0.0	 0.0	 0.0	 0.0	 0.0	 0.0	 0.0	 0.0	 0.0	 0.0; % NG
	10090	 205.2	 130.592	 314.0	 -314.0	 1.03966	 806.0	 1	 598	 205.2	 0.0	 0.0	 0.0	 0.0	 0.0	 0.0	 0.0	 0.0	 0.0	 0.0	 0.0; % COW
	10094	 364.226	 9601.661	 12680.4	 -12680.4	 1.02688	 970.0	 1	 1057	 277.2	 0.0	 0.0	 0.0	 0.0	 0.0	 0.0	 0.0	 0.0	 0.0	 0.0	 0.0; % COW
	10095	 60.9	 -2473.639	 2992.8	 -2992.8	 1.02411	 1439.0	 1	 476	 60.9	 0.0	 0.0	 0.0	 0.0	 0.0	 0.0	 0.0	 0.0	 0.0	 0.0	 0.0; % COW
	10100	 1744.0	 -967.999	 968.0	 -968.0	 1.01184	 2202.0	 1	 1744	 633.6	 0.0	 0.0	 0.0	 0.0	 0.0	 0.0	 0.0	 0.0	 0.0	 0.0	 0.0; % COW
	10104	 560.0	 60.569	 413.0	 -413.0	 1.04261	 939.0	 1	 560	 270.0	 0.0	 0.0	 0.0	 0.0	 0.0	 0.0	 0.0	 0.0	 0.0	 0.0	 0.0; % COW
	10115	 140.4	 -214.989	 215.0	 -215.0	 1.00337	 492.0	 1	 341	 140.4	 0.0	 0.0	 0.0	 0.0	 0.0	 0.0	 0.0	 0.0	 0.0	 0.0	 0.0; % NG
	10116	 140.4	 -214.989	 215.0	 -215.0	 1.00337	 492.0	 1	 417	 140.4	 0.0	 0.0	 0.0	 0.0	 0.0	 0.0	 0.0	 0.0	 0.0	 0.0	 0.0; % NG
	10118	 1376.0	 285.923	 825.0	 -825.0	 1.02365	 1876.0	 1	 1376	 540.0	 0.0	 0.0	 0.0	 0.0	 0.0	 0.0	 0.0	 0.0	 0.0	 0.0	 0.0; % NUC
	10126	 1162.0	 -453.188	 581.0	 -581.0	 1.01132	 786.0	 1	 1162	 212.4	 0.0	 0.0	 0.0	 0.0	 0.0	 0.0	 0.0	 0.0	 0.0	 0.0	 0.0; % COW
	10129	 1749.0	 -452.456	 1265.0	 -1265.0	 1.0444	 2974.0	 1	 1749	 828.0	 0.0	 0.0	 0.0	 0.0	 0.0	 0.0	 0.0	 0.0	 0.0	 0.0	 0.0; % COW
	10132	 775.0	 -57.978	 446.0	 -446.0	 1.02357	 1014.0	 1	 775	 291.6	 0.0	 0.0	 0.0	 0.0	 0.0	 0.0	 0.0	 0.0	 0.0	 0.0	 0.0; % COW
	10139	 950.0	 156.098	 495.0	 -495.0	 1.04262	 1143.0	 1	 950	 324.0	 0.0	 0.0	 0.0	 0.0	 0.0	 0.0	 0.0	 0.0	 0.0	 0.0	 0.0; % COW
	10140	 486.0	 141.523	 743.0	 -743.0	 1.04102	 1705.0	 1	 1117	 486.0	 0.0	 0.0	 0.0	 0.0	 0.0	 0.0	 0.0	 0.0	 0.0	 0.0	 0.0; % NG
	10141	 1346.0	 -84.745	 935.0	 -935.0	 1.02089	 2125.0	 1	 1346	 612.0	 0.0	 0.0	 0.0	 0.0	 0.0	 0.0	 0.0	 0.0	 0.0	 0.0	 0.0; % COW
	10146	 57.6	 -137.992	 138.0	 -138.0	 1.04734	 224.0	 1	 256	 57.6	 0.0	 0.0	 0.0	 0.0	 0.0	 0.0	 0.0	 0.0	 0.0	 0.0	 0.0; % NG
	10150	 100.8	 51.033	 333.0	 -333.0	 1.03888	 427.0	 1	 665	 100.8	 0.0	 0.0	 0.0	 0.0	 0.0	 0.0	 0.0	 0.0	 0.0	 0.0	 0.0; % NG
	10171	 42.3	 -9363.407	 12222.0	 -12222.0	 1.02142	 715.0	 1	 117	 42.3	 0.0	 0.0	 0.0	 0.0	 0.0	 0.0	 0.0	 0.0	 0.0	 0.0	 0.0; % NG
	10176	 95.5	 145.999	 146.0	 -146.0	 1.01618	 346.0	 1	 215	 95.5	 0.0	 0.0	 0.0	 0.0	 0.0	 0.0	 0.0	 0.0	 0.0	 0.0	 0.0; % NG
	10177	 226.0	 145.999	 146.0	 -146.0	 1.01636	 346.0	 1	 226	 95.5	 0.0	 0.0	 0.0	 0.0	 0.0	 0.0	 0.0	 0.0	 0.0	 0.0	 0.0; % NG
	10186	 401.968	 5.104	 276.0	 -276.0	 1.08372	 618.0	 1	 551	 171.35	 0.0	 0.0	 0.0	 0.0	 0.0	 0.0	 0.0	 0.0	 0.0	 0.0	 0.0; % COW
	10187	 171.35	 28.377	 268.0	 -268.0	 1.08491	 618.0	 1	 449	 171.35	 0.0	 0.0	 0.0	 0.0	 0.0	 0.0	 0.0	 0.0	 0.0	 0.0	 0.0; % NG
	10188	 385.278	 -75.609	 266.0	 -266.0	 1.04542	 618.0	 1	 482	 173.9	 0.0	 0.0	 0.0	 0.0	 0.0	 0.0	 0.0	 0.0	 0.0	 0.0	 0.0; % NG
	10189	 518.0	 -51.459	 272.0	 -272.0	 1.04633	 620.0	 1	 518	 141.5	 0.0	 0.0	 0.0	 0.0	 0.0	 0.0	 0.0	 0.0	 0.0	 0.0	 0.0; % COW
	10190	 706.0	 -1.319	 353.0	 -353.0	 1.04599	 683.0	 1	 706	 185.75	 0.0	 0.0	 0.0	 0.0	 0.0	 0.0	 0.0	 0.0	 0.0	 0.0	 0.0; % COW
	10191	 417.0	 -5.316	 300.0	 -300.0	 1.04569	 682.0	 1	 417	 185.4	 0.0	 0.0	 0.0	 0.0	 0.0	 0.0	 0.0	 0.0	 0.0	 0.0	 0.0; % COW
	10192	 340.0	 67.157	 170.0	 -170.0	 1.07901	 281.0	 1	 340	 55.8	 0.0	 0.0	 0.0	 0.0	 0.0	 0.0	 0.0	 0.0	 0.0	 0.0	 0.0; % NG
	10194	 184.0	 -87.491	 106.8	 -106.8	 1.04399	 184.0	 1	 184	 32.4	 0.0	 0.0	 0.0	 0.0	 0.0	 0.0	 0.0	 0.0	 0.0	 0.0	 0.0; % COW
	10196	 54.0	 -53.605	 144.0	 -144.0	 1.03978	 215.0	 1	 288	 54.0	 0.0	 0.0	 0.0	 0.0	 0.0	 0.0	 0.0	 0.0	 0.0	 0.0	 0.0; % PEL
	10223	 0.0	 193.579	 194.4	 -194.4	 1.04682	 189.0	 1	 63	 0.0	 0.0	 0.0	 0.0	 0.0	 0.0	 0.0	 0.0	 0.0	 0.0	 0.0	 0.0; % NG
	10225	 303.0	 128.279	 182.4	 -182.4	 1.05579	 333.0	 1	 303	 38.9	 0.0	 0.0	 0.0	 0.0	 0.0	 0.0	 0.0	 0.0	 0.0	 0.0	 0.0; % COW
	10226	 17.3	 121.076	 121.2	 -121.2	 1.06719	 198.0	 1	 90	 17.3	 0.0	 0.0	 0.0	 0.0	 0.0	 0.0	 0.0	 0.0	 0.0	 0.0	 0.0; % NG
	10227	 107.0	 49.832	 73.2	 -73.2	 1.09876	 191.0	 1	 107	 5.75	 0.0	 0.0	 0.0	 0.0	 0.0	 0.0	 0.0	 0.0	 0.0	 0.0	 0.0; % COW
	10228	 9.35	 146.398	 146.4	 -146.4	 1.05725	 135.0	 1	 209	 9.35	 0.0	 0.0	 0.0	 0.0	 0.0	 0.0	 0.0	 0.0	 0.0	 0.0	 0.0; % NG
	10229	 137.0	 31.915	 69.0	 -69.0	 1.09619	 85.0	 1	 137	 19.8	 0.0	 0.0	 0.0	 0.0	 0.0	 0.0	 0.0	 0.0	 0.0	 0.0	 0.0; % NG
	10230	 0.0	 0.154	 40.8	 -40.8	 1.06103	 132.0	 1	 24	 0.0	 0.0	 0.0	 0.0	 0.0	 0.0	 0.0	 0.0	 0.0	 0.0	 0.0	 0.0; % PEL
	10232	 430.0	 34.466	 215.0	 -215.0	 1.02631	 64.0	 1	 430	 5.6	 0.0	 0.0	 0.0	 0.0	 0.0	 0.0	 0.0	 0.0	 0.0	 0.0	 0.0; % NG
	10233	 22.7	 88.932	 99.0	 -99.0	 1.04743	 79.0	 1	 197	 22.7	 0.0	 0.0	 0.0	 0.0	 0.0	 0.0	 0.0	 0.0	 0.0	 0.0	 0.0; % NG
	10234	 1.8	 221.996	 222.0	 -222.0	 1.09364	 115.0	 1	 444	 1.8	 0.0	 0.0	 0.0	 0.0	 0.0	 0.0	 0.0	 0.0	 0.0	 0.0	 0.0; % NG
	10235	 14.4	 21.901	 68.0	 -68.0	 1.10566	 83.0	 1	 135	 14.4	 0.0	 0.0	 0.0	 0.0	 0.0	 0.0	 0.0	 0.0	 0.0	 0.0	 0.0; % NG
	10236	 59.75	 30.595	 103.0	 -103.0	 1.0742	 219.0	 1	 206	 59.75	 0.0	 0.0	 0.0	 0.0	 0.0	 0.0	 0.0	 0.0	 0.0	 0.0	 0.0; % NG
	10237	 388.0	 104.258	 194.0	 -194.0	 1.11479	 121.0	 1	 388	 25.2	 0.0	 0.0	 0.0	 0.0	 0.0	 0.0	 0.0	 0.0	 0.0	 0.0	 0.0; % COW
	10238	 293.0	 71.304	 262.8	 -262.8	 0.99982	 179.0	 1	 293	 30.95	 0.0	 0.0	 0.0	 0.0	 0.0	 0.0	 0.0	 0.0	 0.0	 0.0	 0.0; % NG
	10239	 119.0	 38.093	 60.0	 -60.0	 1.06275	 109.0	 1	 119	 31.3	 0.0	 0.0	 0.0	 0.0	 0.0	 0.0	 0.0	 0.0	 0.0	 0.0	 0.0; % NG
	10240	 0.0	 34.787	 34.8	 -34.8	 1.07145	 128.0	 1	 49	 0.0	 0.0	 0.0	 0.0	 0.0	 0.0	 0.0	 0.0	 0.0	 0.0	 0.0	 0.0; % NG
	10246	 73.1	 -65.614	 112.0	 -112.0	 1.03182	 262.0	 1	 204	 73.1	 0.0	 0.0	 0.0	 0.0	 0.0	 0.0	 0.0	 0.0	 0.0	 0.0	 0.0; % NG
	10247	 51.1	 10.747	 108.0	 -108.0	 1.11846	 215.0	 1	 215	 51.1	 0.0	 0.0	 0.0	 0.0	 0.0	 0.0	 0.0	 0.0	 0.0	 0.0	 0.0; % COW
	10248	 227.0	 6.292	 114.0	 -114.0	 1.12	 241.0	 1	 227	 61.2	 0.0	 0.0	 0.0	 0.0	 0.0	 0.0	 0.0	 0.0	 0.0	 0.0	 0.0; % NG
	10249	 64.0	 -33.615	 101.0	 -101.0	 1.00086	 225.0	 1	 202	 64.0	 0.0	 0.0	 0.0	 0.0	 0.0	 0.0	 0.0	 0.0	 0.0	 0.0	 0.0; % NG
	10250	 187.2	 -32.847	 333.0	 -333.0	 1.03334	 650.0	 1	 666	 187.2	 0.0	 0.0	 0.0	 0.0	 0.0	 0.0	 0.0	 0.0	 0.0	 0.0	 0.0; % NG
	10251	 770.173	 150.085	 479.0	 -479.0	 1.06805	 650.0	 1	 957	 187.2	 0.0	 0.0	 0.0	 0.0	 0.0	 0.0	 0.0	 0.0	 0.0	 0.0	 0.0; % COW
	10252	 187.2	 -34.523	 716.0	 -716.0	 1.03284	 650.0	 1	 1432	 187.2	 0.0	 0.0	 0.0	 0.0	 0.0	 0.0	 0.0	 0.0	 0.0	 0.0	 0.0; % COW
	10253	 377.612	 96.739	 410.0	 -410.0	 1.06361	 341.0	 1	 819	 93.95	 0.0	 0.0	 0.0	 0.0	 0.0	 0.0	 0.0	 0.0	 0.0	 0.0	 0.0; % COW
	10254	 171.35	 5.255	 262.0	 -262.0	 1.04274	 598.0	 1	 429	 171.35	 0.0	 0.0	 0.0	 0.0	 0.0	 0.0	 0.0	 0.0	 0.0	 0.0	 0.0; % NG
	10255	 60.5	 2.664	 119.0	 -119.0	 1.03666	 210.0	 1	 237	 60.5	 0.0	 0.0	 0.0	 0.0	 0.0	 0.0	 0.0	 0.0	 0.0	 0.0	 0.0; % NG
	10256	 140.4	 -1.682	 246.0	 -246.0	 1.11033	 489.0	 1	 491	 140.4	 0.0	 0.0	 0.0	 0.0	 0.0	 0.0	 0.0	 0.0	 0.0	 0.0	 0.0; % NG
	10257	 70.2	 -8.547	 108.0	 -108.0	 1.10986	 250.0	 1	 216	 70.2	 0.0	 0.0	 0.0	 0.0	 0.0	 0.0	 0.0	 0.0	 0.0	 0.0	 0.0; % NG
	10258	 64.8	 -16.984	 132.0	 -132.0	 1.09655	 230.0	 1	 263	 64.8	 0.0	 0.0	 0.0	 0.0	 0.0	 0.0	 0.0	 0.0	 0.0	 0.0	 0.0; % NG
	10259	 141.85	 -19.535	 270.0	 -270.0	 0.97354	 519.0	 1	 539	 141.85	 0.0	 0.0	 0.0	 0.0	 0.0	 0.0	 0.0	 0.0	 0.0	 0.0	 0.0; % NG
	10260	 566.0	 8.93	 326.0	 -326.0	 1.10683	 741.0	 1	 566	 212.75	 0.0	 0.0	 0.0	 0.0	 0.0	 0.0	 0.0	 0.0	 0.0	 0.0	 0.0; % COW
	10261	 825.0	 29.377	 476.0	 -476.0	 0.99687	 1100.0	 1	 825	 289.8	 0.0	 0.0	 0.0	 0.0	 0.0	 0.0	 0.0	 0.0	 0.0	 0.0	 0.0; % COW
	10262	 689.0	 9.348	 476.0	 -476.0	 0.99547	 1100.0	 1	 689	 289.8	 0.0	 0.0	 0.0	 0.0	 0.0	 0.0	 0.0	 0.0	 0.0	 0.0	 0.0; % NG
	10263	 33.85	 5.431	 73.0	 -73.0	 1.08582	 121.0	 1	 146	 33.85	 0.0	 0.0	 0.0	 0.0	 0.0	 0.0	 0.0	 0.0	 0.0	 0.0	 0.0; % NG
	10264	 427.0	 1.568	 215.0	 -215.0	 1.0032	 489.0	 1	 427	 140.4	 0.0	 0.0	 0.0	 0.0	 0.0	 0.0	 0.0	 0.0	 0.0	 0.0	 0.0; % NG
	10265	 420.0	 -5.394	 215.0	 -215.0	 1.1025	 496.0	 1	 420	 140.4	 0.0	 0.0	 0.0	 0.0	 0.0	 0.0	 0.0	 0.0	 0.0	 0.0	 0.0; % NG
	10266	 1.8	 9.67	 38.0	 -38.0	 1.04658	 72.0	 1	 75	 1.8	 0.0	 0.0	 0.0	 0.0	 0.0	 0.0	 0.0	 0.0	 0.0	 0.0	 0.0; % PEL
	10267	 99.0	 35.12	 50.0	 -50.0	 1.07145	 120.0	 1	 99	 2.15	 0.0	 0.0	 0.0	 0.0	 0.0	 0.0	 0.0	 0.0	 0.0	 0.0	 0.0; % NG
	10268	 10.45	 16.203	 52.8	 -52.8	 1.06435	 37.0	 1	 82	 10.45	 0.0	 0.0	 0.0	 0.0	 0.0	 0.0	 0.0	 0.0	 0.0	 0.0	 0.0; % NG
	10269	 802.0	 163.37	 401.0	 -401.0	 1.10452	 338.0	 1	 802	 34.2	 0.0	 0.0	 0.0	 0.0	 0.0	 0.0	 0.0	 0.0	 0.0	 0.0	 0.0; % COW
	10270	 0.0	 24.752	 34.0	 -34.0	 1.05323	 40.0	 1	 68	 0.0	 0.0	 0.0	 0.0	 0.0	 0.0	 0.0	 0.0	 0.0	 0.0	 0.0	 0.0; % PEL
	10271	 503.0	 71.743	 252.0	 -252.0	 1.08418	 286.0	 1	 503	 78.1	 0.0	 0.0	 0.0	 0.0	 0.0	 0.0	 0.0	 0.0	 0.0	 0.0	 0.0; % NG
	10272	 12.25	 22.199	 47.0	 -47.0	 1.07141	 116.0	 1	 93	 12.25	 0.0	 0.0	 0.0	 0.0	 0.0	 0.0	 0.0	 0.0	 0.0	 0.0	 0.0; % PEL
	10273	 394.0	 56.761	 197.0	 -197.0	 1.02343	 321.0	 1	 394	 82.8	 0.0	 0.0	 0.0	 0.0	 0.0	 0.0	 0.0	 0.0	 0.0	 0.0	 0.0; % NG
	10274	 30.6	 131.667	 172.0	 -172.0	 1.05752	 317.0	 1	 343	 30.6	 0.0	 0.0	 0.0	 0.0	 0.0	 0.0	 0.0	 0.0	 0.0	 0.0	 0.0; % NG
	10275	 155.0	 9.518	 78.0	 -78.0	 1.05562	 125.0	 1	 155	 10.8	 0.0	 0.0	 0.0	 0.0	 0.0	 0.0	 0.0	 0.0	 0.0	 0.0	 0.0; % COW
	10276	 53.65	 32.405	 129.0	 -129.0	 1.06616	 189.0	 1	 257	 53.65	 0.0	 0.0	 0.0	 0.0	 0.0	 0.0	 0.0	 0.0	 0.0	 0.0	 0.0; % NG
	10277	 40.3	 81.963	 101.0	 -101.0	 1.06313	 225.0	 1	 202	 40.3	 0.0	 0.0	 0.0	 0.0	 0.0	 0.0	 0.0	 0.0	 0.0	 0.0	 0.0; % PEL
	10278	 64.8	 12.381	 99.0	 -99.0	 1.10583	 233.0	 1	 156	 64.8	 0.0	 0.0	 0.0	 0.0	 0.0	 0.0	 0.0	 0.0	 0.0	 0.0	 0.0; % NG
	10279	 64.8	 12.381	 99.0	 -99.0	 1.10583	 233.0	 1	 173	 64.8	 0.0	 0.0	 0.0	 0.0	 0.0	 0.0	 0.0	 0.0	 0.0	 0.0	 0.0; % NG
	10281	 1.45	 28.916	 30.0	 -30.0	 1.07606	 20.0	 1	 55	 1.45	 0.0	 0.0	 0.0	 0.0	 0.0	 0.0	 0.0	 0.0	 0.0	 0.0	 0.0; % NG
	10282	 29.15	 178.999	 179.0	 -179.0	 1.08001	 357.0	 1	 357	 29.15	 0.0	 0.0	 0.0	 0.0	 0.0	 0.0	 0.0	 0.0	 0.0	 0.0	 0.0; % NG
	10284	 1320.0	 100.099	 660.0	 -660.0	 1.12	 919.0	 1	 1320	 209.15	 0.0	 0.0	 0.0	 0.0	 0.0	 0.0	 0.0	 0.0	 0.0	 0.0	 0.0; % COW
	10285	 0.0	 -29.486	 78.0	 -78.0	 1.05442	 132.0	 1	 58	 0.0	 0.0	 0.0	 0.0	 0.0	 0.0	 0.0	 0.0	 0.0	 0.0	 0.0	 0.0; % NG
	10288	 10.45	 -22.994	 99.0	 -99.0	 1.03299	 63.0	 1	 197	 10.45	 0.0	 0.0	 0.0	 0.0	 0.0	 0.0	 0.0	 0.0	 0.0	 0.0	 0.0; % PEL
	10289	 0.35	 -12.79	 115.0	 -115.0	 1.05633	 41.0	 1	 229	 0.35	 0.0	 0.0	 0.0	 0.0	 0.0	 0.0	 0.0	 0.0	 0.0	 0.0	 0.0; % PEL
	10290	 14.05	 37.317	 109.0	 -109.0	 1.06263	 49.0	 1	 218	 14.05	 0.0	 0.0	 0.0	 0.0	 0.0	 0.0	 0.0	 0.0	 0.0	 0.0	 0.0; % NG
	10291	 231.0	 18.577	 116.0	 -116.0	 1.08244	 71.0	 1	 231	 2.9	 0.0	 0.0	 0.0	 0.0	 0.0	 0.0	 0.0	 0.0	 0.0	 0.0	 0.0; % COW
	10292	 376.0	 164.813	 239.0	 -239.0	 1.08321	 638.0	 1	 376	 156.25	 0.0	 0.0	 0.0	 0.0	 0.0	 0.0	 0.0	 0.0	 0.0	 0.0	 0.0; % COW
	10293	 9.7	 20.374	 88.0	 -88.0	 1.10346	 46.0	 1	 175	 9.7	 0.0	 0.0	 0.0	 0.0	 0.0	 0.0	 0.0	 0.0	 0.0	 0.0	 0.0; % NG
	10294	 3.95	 29.462	 32.0	 -32.0	 1.09629	 74.0	 1	 64	 3.95	 0.0	 0.0	 0.0	 0.0	 0.0	 0.0	 0.0	 0.0	 0.0	 0.0	 0.0; % COW
	10295	 75.95	 148.666	 286.8	 -286.8	 0.99554	 299.0	 1	 366	 75.95	 0.0	 0.0	 0.0	 0.0	 0.0	 0.0	 0.0	 0.0	 0.0	 0.0	 0.0; % NG
	10296	 270.0	 132.266	 151.0	 -151.0	 1.10018	 461.0	 1	 270	 98.65	 0.0	 0.0	 0.0	 0.0	 0.0	 0.0	 0.0	 0.0	 0.0	 0.0	 0.0; % NG
	24	 55.0	 72.14	 112.0	 -112.0	 1.10655	 235.3	 1	 223	 55.0	 0.0	 0.0	 0.0	 0.0	 0.0	 0.0	 0.0	 0.0	 0.0	 0.0	 0.0; % NG
	25	 67.5	 74.326	 133.0	 -133.0	 1.1066	 235.3	 1	 266	 67.5	 0.0	 0.0	 0.0	 0.0	 0.0	 0.0	 0.0	 0.0	 0.0	 0.0	 0.0; % NG
	37	 120.0	 53.166	 185.0	 -141.0	 1.09659	 426.0	 1	 282	 120.0	 0.0	 0.0	 0.0	 0.0	 0.0	 0.0	 0.0	 0.0	 0.0	 0.0	 0.0; % NG
	37	 120.0	 61.988	 234.0	 -234.0	 1.09659	 426.0	 1	 468	 120.0	 0.0	 0.0	 0.0	 0.0	 0.0	 0.0	 0.0	 0.0	 0.0	 0.0	 0.0; % NG
	38	 120.0	 18.379	 185.0	 -143.0	 1.09958	 426.0	 1	 286	 120.0	 0.0	 0.0	 0.0	 0.0	 0.0	 0.0	 0.0	 0.0	 0.0	 0.0	 0.0; % NG
	38	 350.0	 1.843	 185.0	 -175.0	 1.09958	 426.0	 1	 350	 120.0	 0.0	 0.0	 0.0	 0.0	 0.0	 0.0	 0.0	 0.0	 0.0	 0.0	 0.0; % NG
	39	 120.0	 85.018	 185.0	 -175.0	 1.09956	 426.0	 1	 350	 120.0	 0.0	 0.0	 0.0	 0.0	 0.0	 0.0	 0.0	 0.0	 0.0	 0.0	 0.0; % NG
	40	 354.0	 -28.424	 185.0	 -177.0	 1.03934	 426.0	 1	 354	 120.0	 0.0	 0.0	 0.0	 0.0	 0.0	 0.0	 0.0	 0.0	 0.0	 0.0	 0.0; % COW
	40	 120.0	 -26.405	 185.0	 -174.0	 1.03934	 426.0	 1	 348	 120.0	 0.0	 0.0	 0.0	 0.0	 0.0	 0.0	 0.0	 0.0	 0.0	 0.0	 0.0; % NG
	40	 120.0	 -42.01	 207.0	 -207.0	 1.03934	 426.0	 1	 414	 120.0	 0.0	 0.0	 0.0	 0.0	 0.0	 0.0	 0.0	 0.0	 0.0	 0.0	 0.0; % NG
	41	 684.0	 13.818	 342.0	 -342.0	 1.03942	 426.0	 1	 684	 120.0	 0.0	 0.0	 0.0	 0.0	 0.0	 0.0	 0.0	 0.0	 0.0	 0.0	 0.0; % COW
	41	 120.0	 29.472	 185.0	 -132.0	 1.03942	 426.0	 1	 264	 120.0	 0.0	 0.0	 0.0	 0.0	 0.0	 0.0	 0.0	 0.0	 0.0	 0.0	 0.0; % NG
	41	 120.0	 27.63	 484.0	 -484.0	 1.03942	 426.0	 1	 968	 120.0	 0.0	 0.0	 0.0	 0.0	 0.0	 0.0	 0.0	 0.0	 0.0	 0.0	 0.0; % COW
	57	 55.0	 55.849	 221.0	 -221.0	 1.10369	 235.0	 1	 441	 55.0	 0.0	 0.0	 0.0	 0.0	 0.0	 0.0	 0.0	 0.0	 0.0	 0.0	 0.0; % NG
	57	 344.0	 34.668	 172.0	 -172.0	 1.10369	 235.0	 1	 344	 62.5	 0.0	 0.0	 0.0	 0.0	 0.0	 0.0	 0.0	 0.0	 0.0	 0.0	 0.0; % NG
	58	 62.5	 136.47	 224.0	 -224.0	 1.10363	 235.0	 1	 447	 62.5	 0.0	 0.0	 0.0	 0.0	 0.0	 0.0	 0.0	 0.0	 0.0	 0.0	 0.0; % NG
	58	 0.0	 0.0	 113.0	 -49.0	 1.10363	 235.0	 0	 98	 60.0	 0.0	 0.0	 0.0	 0.0	 0.0	 0.0	 0.0	 0.0	 0.0	 0.0	 0.0; % NG
	58	 55.0	 46.206	 113.0	 -112.0	 1.10363	 235.0	 1	 223	 55.0	 0.0	 0.0	 0.0	 0.0	 0.0	 0.0	 0.0	 0.0	 0.0	 0.0	 0.0; % COW
	59	 275.0	 45.067	 138.0	 -138.0	 1.10369	 235.0	 1	 275	 55.0	 0.0	 0.0	 0.0	 0.0	 0.0	 0.0	 0.0	 0.0	 0.0	 0.0	 0.0; % COW
	60	 127.5	 160.599	 268.0	 -171.0	 1.04998	 588.0	 1	 342	 127.5	 0.0	 0.0	 0.0	 0.0	 0.0	 0.0	 0.0	 0.0	 0.0	 0.0	 0.0; % PEL
	61	 356.0	 61.572	 280.0	 -178.0	 1.05	 588.0	 1	 356	 125.0	 0.0	 0.0	 0.0	 0.0	 0.0	 0.0	 0.0	 0.0	 0.0	 0.0	 0.0; % NG
	70	 341.0	 -32.143	 171.0	 -171.0	 1.11	 235.0	 1	 341	 64.5	 0.0	 0.0	 0.0	 0.0	 0.0	 0.0	 0.0	 0.0	 0.0	 0.0	 0.0; % NG
	71	 64.5	 76.681	 137.0	 -137.0	 1.10999	 235.0	 1	 273	 64.5	 0.0	 0.0	 0.0	 0.0	 0.0	 0.0	 0.0	 0.0	 0.0	 0.0	 0.0; % NG
	71	 0.0	 0.0	 137.0	 -137.0	 1.10999	 235.0	 0	 274	 64.5	 0.0	 0.0	 0.0	 0.0	 0.0	 0.0	 0.0	 0.0	 0.0	 0.0	 0.0; % COW
	72	 0.0	 0.0	 105.0	 -13.0	 1.04125	 235.0	 0	 26	 129.0	 0.0	 0.0	 0.0	 0.0	 0.0	 0.0	 0.0	 0.0	 0.0	 0.0	 0.0; % NG
	72	 389.0	 -25.585	 195.0	 -195.0	 1.04125	 235.0	 1	 389	 64.5	 0.0	 0.0	 0.0	 0.0	 0.0	 0.0	 0.0	 0.0	 0.0	 0.0	 0.0; % NG
	73	 281.0	 -10.224	 141.0	 -141.0	 1.04128	 235.0	 1	 281	 64.5	 0.0	 0.0	 0.0	 0.0	 0.0	 0.0	 0.0	 0.0	 0.0	 0.0	 0.0; % NG
	73	 824.0	 -84.097	 412.0	 -412.0	 1.04128	 235.0	 1	 824	 64.5	 0.0	 0.0	 0.0	 0.0	 0.0	 0.0	 0.0	 0.0	 0.0	 0.0	 0.0; % COW
	74	 139.0	 62.364	 70.0	 -70.0	 1.09981	 120.0	 1	 139	 0.0	 0.0	 0.0	 0.0	 0.0	 0.0	 0.0	 0.0	 0.0	 0.0	 0.0	 0.0; % NG
	94	 62.5	 33.045	 110.0	 -98.0	 1.10303	 270.6	 1	 196	 62.5	 0.0	 0.0	 0.0	 0.0	 0.0	 0.0	 0.0	 0.0	 0.0	 0.0	 0.0; % NG
	94	 422.0	 95.129	 211.0	 -211.0	 1.10303	 270.6	 1	 422	 70.0	 0.0	 0.0	 0.0	 0.0	 0.0	 0.0	 0.0	 0.0	 0.0	 0.0	 0.0; % NG
	95	 172.0	 55.223	 113.0	 -86.0	 1.10768	 270.6	 1	 172	 65.0	 0.0	 0.0	 0.0	 0.0	 0.0	 0.0	 0.0	 0.0	 0.0	 0.0	 0.0; % NG
	95	 304.0	 82.953	 152.0	 -152.0	 1.10768	 270.6	 1	 304	 62.5	 0.0	 0.0	 0.0	 0.0	 0.0	 0.0	 0.0	 0.0	 0.0	 0.0	 0.0; % NG
	95	 231.0	 53.933	 116.0	 -116.0	 1.10768	 270.6	 1	 231	 65.0	 0.0	 0.0	 0.0	 0.0	 0.0	 0.0	 0.0	 0.0	 0.0	 0.0	 0.0; % NG
	98	 110.0	 52.682	 192.0	 -163.0	 1.05	 426.0	 1	 325	 110.0	 0.0	 0.0	 0.0	 0.0	 0.0	 0.0	 0.0	 0.0	 0.0	 0.0	 0.0; % NG
	98	 369.0	 41.319	 185.0	 -185.0	 1.05	 435.3	 1	 369	 110.0	 0.0	 0.0	 0.0	 0.0	 0.0	 0.0	 0.0	 0.0	 0.0	 0.0	 0.0; % NG
	115	 0.0	 30.39	 36.0	 -36.0	 1.10468	 12.0	 1	 71	 0.0	 0.0	 0.0	 0.0	 0.0	 0.0	 0.0	 0.0	 0.0	 0.0	 0.0	 0.0; % NG
	115	 0.0	 23.512	 29.0	 -29.0	 1.10468	 6.0	 1	 57	 0.0	 0.0	 0.0	 0.0	 0.0	 0.0	 0.0	 0.0	 0.0	 0.0	 0.0	 0.0; % PEL
	121	 0.0	 0.0	 113.0	 -21.0	 1.10695	 270.6	 0	 41	 120.0	 0.0	 0.0	 0.0	 0.0	 0.0	 0.0	 0.0	 0.0	 0.0	 0.0	 0.0; % NG
	122	 202.0	 112.999	 113.0	 -101.0	 1.10707	 270.6	 1	 202	 60.0	 0.0	 0.0	 0.0	 0.0	 0.0	 0.0	 0.0	 0.0	 0.0	 0.0	 0.0; % NG
	123	 255.0	 61.948	 128.0	 -128.0	 1.10441	 150.0	 1	 255	 35.0	 0.0	 0.0	 0.0	 0.0	 0.0	 0.0	 0.0	 0.0	 0.0	 0.0	 0.0; % COW
	124	 35.0	 -8.915	 60.0	 -50.0	 1.10434	 150.0	 1	 100	 35.0	 0.0	 0.0	 0.0	 0.0	 0.0	 0.0	 0.0	 0.0	 0.0	 0.0	 0.0; % PEL
	134	 0.0	 0.0	 60.0	 -8.0	 1.10422	 150.0	 0	 15	 70.0	 0.0	 0.0	 0.0	 0.0	 0.0	 0.0	 0.0	 0.0	 0.0	 0.0	 0.0; % NG
	135	 35.0	 66.818	 104.0	 -104.0	 1.10415	 150.0	 1	 207	 35.0	 0.0	 0.0	 0.0	 0.0	 0.0	 0.0	 0.0	 0.0	 0.0	 0.0	 0.0; % NG
	136	 230.0	 65.555	 115.0	 -115.0	 1.09824	 117.5	 1	 230	 40.0	 0.0	 0.0	 0.0	 0.0	 0.0	 0.0	 0.0	 0.0	 0.0	 0.0	 0.0; % NG
	144	 473.0	 108.552	 237.0	 -237.0	 1.11	 270.6	 1	 473	 67.5	 0.0	 0.0	 0.0	 0.0	 0.0	 0.0	 0.0	 0.0	 0.0	 0.0	 0.0; % COW
	145	 210.0	 37.491	 108.0	 -105.0	 1.11	 270.6	 1	 210	 67.5	 0.0	 0.0	 0.0	 0.0	 0.0	 0.0	 0.0	 0.0	 0.0	 0.0	 0.0; % COW
	145	 209.0	 41.518	 113.0	 -105.0	 1.11	 270.6	 1	 209	 67.5	 0.0	 0.0	 0.0	 0.0	 0.0	 0.0	 0.0	 0.0	 0.0	 0.0	 0.0; % NG
	146	 240.0	 -119.999	 120.0	 -120.0	 1.03457	 270.6	 1	 240	 67.5	 0.0	 0.0	 0.0	 0.0	 0.0	 0.0	 0.0	 0.0	 0.0	 0.0	 0.0; % COW
	146	 67.5	 -81.999	 110.0	 -82.0	 1.03457	 270.6	 1	 164	 67.5	 0.0	 0.0	 0.0	 0.0	 0.0	 0.0	 0.0	 0.0	 0.0	 0.0	 0.0; % NG
	152	 0.0	 0.0	 68.0	 -38.0	 1.07227	 150.0	 0	 76	 -135.0	 0.0	 0.0	 0.0	 0.0	 0.0	 0.0	 0.0	 0.0	 0.0	 0.0	 0.0; % NG
	152	 0.0	 0.0	 68.0	 -29.0	 1.07227	 150.0	 0	 14	 -135.0	 0.0	 0.0	 0.0	 0.0	 0.0	 0.0	 0.0	 0.0	 0.0	 0.0	 0.0; % NG
	153	 0.0	 0.0	 68.0	 -29.0	 1.07201	 150.0	 0	 26	 -135.0	 0.0	 0.0	 0.0	 0.0	 0.0	 0.0	 0.0	 0.0	 0.0	 0.0	 0.0; % NG
	153	 0.0	 0.0	 68.0	 -29.0	 1.07201	 150.0	 0	 54	 -135.0	 0.0	 0.0	 0.0	 0.0	 0.0	 0.0	 0.0	 0.0	 0.0	 0.0	 0.0; % NG
	154	 47.0	 27.434	 88.0	 -88.0	 1.074	 150.0	 1	 176	 47.0	 0.0	 0.0	 0.0	 0.0	 0.0	 0.0	 0.0	 0.0	 0.0	 0.0	 0.0; % PEL
	155	 458.0	 17.787	 229.0	 -229.0	 1.07398	 150.0	 1	 458	 47.0	 0.0	 0.0	 0.0	 0.0	 0.0	 0.0	 0.0	 0.0	 0.0	 0.0	 0.0; % COW
	155	 0.0	 0.0	 60.0	 -26.0	 1.07398	 150.0	 0	 51	 47.0	 0.0	 0.0	 0.0	 0.0	 0.0	 0.0	 0.0	 0.0	 0.0	 0.0	 0.0; % COW
	169	 0.0	 0.0	 68.0	 -68.0	 1.06442	 51.4	 0	 136	 20.0	 0.0	 0.0	 0.0	 0.0	 0.0	 0.0	 0.0	 0.0	 0.0	 0.0	 0.0; % NG
	170	 0.0	 0.0	 73.0	 -73.0	 1.06445	 150.0	 0	 146	 40.0	 0.0	 0.0	 0.0	 0.0	 0.0	 0.0	 0.0	 0.0	 0.0	 0.0	 0.0; % NG
	170	 0.0	 0.0	 25.0	 -17.0	 1.06445	 51.4	 0	 34	 22.5	 0.0	 0.0	 0.0	 0.0	 0.0	 0.0	 0.0	 0.0	 0.0	 0.0	 0.0; % NG
	172	 193.0	 115.999	 116.0	 -97.0	 1.08626	 252.4	 1	 193	 50.0	 0.0	 0.0	 0.0	 0.0	 0.0	 0.0	 0.0	 0.0	 0.0	 0.0	 0.0; % NG
	172	 0.0	 0.0	 103.0	 -21.0	 1.08626	 237.5	 0	 13	 135.0	 0.0	 0.0	 0.0	 0.0	 0.0	 0.0	 0.0	 0.0	 0.0	 0.0	 0.0; % NG
	173	 0.0	 0.0	 381.0	 -381.0	 1.08618	 237.5	 0	 762	 67.5	 0.0	 0.0	 0.0	 0.0	 0.0	 0.0	 0.0	 0.0	 0.0	 0.0	 0.0; % NG
	173	 0.0	 0.0	 102.0	 -15.0	 1.08618	 252.4	 0	 22	 90.0	 0.0	 0.0	 0.0	 0.0	 0.0	 0.0	 0.0	 0.0	 0.0	 0.0	 0.0; % NG
	174	 45.0	 21.797	 151.2	 -151.2	 1.03468	 252.4	 1	 224	 45.0	 0.0	 0.0	 0.0	 0.0	 0.0	 0.0	 0.0	 0.0	 0.0	 0.0	 0.0; % NG
	175	 45.0	 30.305	 133.0	 -133.0	 1.03469	 252.4	 1	 266	 45.0	 0.0	 0.0	 0.0	 0.0	 0.0	 0.0	 0.0	 0.0	 0.0	 0.0	 0.0; % NG
	175	 351.0	 51.232	 176.0	 -176.0	 1.03469	 252.4	 1	 351	 50.0	 0.0	 0.0	 0.0	 0.0	 0.0	 0.0	 0.0	 0.0	 0.0	 0.0	 0.0; % NG
	180	 184.0	 49.693	 127.0	 -92.0	 1.06553	 287.3	 1	 184	 52.0	 0.0	 0.0	 0.0	 0.0	 0.0	 0.0	 0.0	 0.0	 0.0	 0.0	 0.0; % NG
	180	 141.0	 51.556	 127.0	 -84.0	 1.06553	 287.3	 1	 141	 52.0	 0.0	 0.0	 0.0	 0.0	 0.0	 0.0	 0.0	 0.0	 0.0	 0.0	 0.0; % NG
	181	 158.0	 -0.646	 103.0	 -79.2	 1.06545	 238.4	 1	 158	 60.0	 0.0	 0.0	 0.0	 0.0	 0.0	 0.0	 0.0	 0.0	 0.0	 0.0	 0.0; % NG
	181	 52.0	 7.914	 127.0	 -79.2	 1.06545	 287.3	 1	 152	 52.0	 0.0	 0.0	 0.0	 0.0	 0.0	 0.0	 0.0	 0.0	 0.0	 0.0	 0.0; % NG
	182	 47.0	 -5.226	 195.0	 -195.0	 1.06544	 263.9	 1	 389	 47.0	 0.0	 0.0	 0.0	 0.0	 0.0	 0.0	 0.0	 0.0	 0.0	 0.0	 0.0; % NG
	182	 47.0	 -7.523	 234.0	 -234.0	 1.06544	 263.9	 1	 468	 47.0	 0.0	 0.0	 0.0	 0.0	 0.0	 0.0	 0.0	 0.0	 0.0	 0.0	 0.0; % NG
	183	 201.0	 20.543	 103.0	 -101.0	 0.99526	 238.4	 1	 201	 60.0	 0.0	 0.0	 0.0	 0.0	 0.0	 0.0	 0.0	 0.0	 0.0	 0.0	 0.0; % NG
	183	 168.0	 26.016	 103.0	 -84.0	 0.99526	 238.4	 1	 168	 60.0	 0.0	 0.0	 0.0	 0.0	 0.0	 0.0	 0.0	 0.0	 0.0	 0.0	 0.0; % COW
	191	 75.0	 83.187	 139.0	 -139.0	 1.06471	 233.2	 1	 277	 75.0	 0.0	 0.0	 0.0	 0.0	 0.0	 0.0	 0.0	 0.0	 0.0	 0.0	 0.0; % NG
	192	 285.0	 131.509	 162.0	 -162.0	 1.06474	 233.2	 1	 285	 75.0	 0.0	 0.0	 0.0	 0.0	 0.0	 0.0	 0.0	 0.0	 0.0	 0.0	 0.0; % NG
	192	 0.0	 0.0	 100.0	 -23.0	 1.06474	 233.2	 0	 13	 145.0	 0.0	 0.0	 0.0	 0.0	 0.0	 0.0	 0.0	 0.0	 0.0	 0.0	 0.0; % NG
	192	 0.0	 0.0	 100.0	 -23.0	 1.06474	 233.2	 0	 15	 145.0	 0.0	 0.0	 0.0	 0.0	 0.0	 0.0	 0.0	 0.0	 0.0	 0.0	 0.0; % NG
	193	 257.0	 77.719	 302.4	 -302.4	 0.96289	 464.0	 1	 257	 104.0	 0.0	 0.0	 0.0	 0.0	 0.0	 0.0	 0.0	 0.0	 0.0	 0.0	 0.0; % COW
	208	 229.0	 75.677	 115.0	 -115.0	 1.07775	 218.3	 1	 229	 38.0	 0.0	 0.0	 0.0	 0.0	 0.0	 0.0	 0.0	 0.0	 0.0	 0.0	 0.0; % NG
	240	 35.0	 2.662	 90.0	 -62.0	 1.03268	 209.0	 1	 35	 -200.0	 0.0	 0.0	 0.0	 0.0	 0.0	 0.0	 0.0	 0.0	 0.0	 0.0	 0.0; % NG
	240	 278.0	 -36.164	 139.0	 -139.0	 1.03268	 209.0	 1	 278	 -200.0	 0.0	 0.0	 0.0	 0.0	 0.0	 0.0	 0.0	 0.0	 0.0	 0.0	 0.0; % COW
	240	 0.0	 0.0	 90.0	 -90.0	 1.03268	 209.0	 0	 57	 -200.0	 0.0	 0.0	 0.0	 0.0	 0.0	 0.0	 0.0	 0.0	 0.0	 0.0	 0.0; % NG
	241	 461.0	 19.008	 231.0	 -231.0	 1.0327	 209.0	 1	 461	 -200.0	 0.0	 0.0	 0.0	 0.0	 0.0	 0.0	 0.0	 0.0	 0.0	 0.0	 0.0; % COW
	244	 218.0	 8.637	 109.0	 -109.0	 1.11	 177.1	 1	 218	 56.25	 0.0	 0.0	 0.0	 0.0	 0.0	 0.0	 0.0	 0.0	 0.0	 0.0	 0.0; % COW
	254	 11.5	 5.737	 33.6	 -33.6	 1.09646	 78.8	 1	 52	 11.5	 0.0	 0.0	 0.0	 0.0	 0.0	 0.0	 0.0	 0.0	 0.0	 0.0	 0.0; % NG
	254	 12.5	 25.311	 74.0	 -74.0	 1.09646	 68.8	 1	 148	 12.5	 0.0	 0.0	 0.0	 0.0	 0.0	 0.0	 0.0	 0.0	 0.0	 0.0	 0.0; % NG
	254	 12.5	 32.344	 85.0	 -85.0	 1.09646	 68.8	 1	 170	 12.5	 0.0	 0.0	 0.0	 0.0	 0.0	 0.0	 0.0	 0.0	 0.0	 0.0	 0.0; % NG
	254	 104.0	 13.237	 52.0	 -52.0	 1.09646	 27.6	 1	 104	 3.5	 0.0	 0.0	 0.0	 0.0	 0.0	 0.0	 0.0	 0.0	 0.0	 0.0	 0.0; % NG
	267	 0.25	 -0.617	 43.0	 -43.0	 1.10312	 0.7	 1	 86	 0.25	 0.0	 0.0	 0.0	 0.0	 0.0	 0.0	 0.0	 0.0	 0.0	 0.0	 0.0; % PEL
	268	 0.25	 7.045	 31.0	 -31.0	 1.08781	 0.7	 1	 62	 0.25	 0.0	 0.0	 0.0	 0.0	 0.0	 0.0	 0.0	 0.0	 0.0	 0.0	 0.0; % PEL
	278	 0.0	 0.0	 85.0	 -85.0	 1.11537	 10.3	 0	 170	 2.95	 0.0	 0.0	 0.0	 0.0	 0.0	 0.0	 0.0	 0.0	 0.0	 0.0	 0.0; % NG
	279	 0.0	 0.0	 4.0	 -1.0	 1.10982	 10.3	 0	 1	 5.9	 0.0	 0.0	 0.0	 0.0	 0.0	 0.0	 0.0	 0.0	 0.0	 0.0	 0.0; % NG
	295	 0.5	 5.802	 51.0	 -51.0	 1.10235	 5.0	 1	 101	 0.5	 0.0	 0.0	 0.0	 0.0	 0.0	 0.0	 0.0	 0.0	 0.0	 0.0	 0.0; % NG
	295	 14.201	 2.91	 36.0	 -36.0	 1.10235	 5.0	 1	 72	 0.5	 0.0	 0.0	 0.0	 0.0	 0.0	 0.0	 0.0	 0.0	 0.0	 0.0	 0.0; % NG
	295	 59.0	 2.025	 30.0	 -30.0	 1.10235	 5.0	 1	 59	 0.5	 0.0	 0.0	 0.0	 0.0	 0.0	 0.0	 0.0	 0.0	 0.0	 0.0	 0.0; % NG
	295	 0.5	 9.922	 67.0	 -67.0	 1.10235	 5.0	 1	 133	 0.5	 0.0	 0.0	 0.0	 0.0	 0.0	 0.0	 0.0	 0.0	 0.0	 0.0	 0.0; % NG
	310	 120.0	 204.555	 304.8	 -304.8	 0.99613	 426.0	 1	 308	 120.0	 0.0	 0.0	 0.0	 0.0	 0.0	 0.0	 0.0	 0.0	 0.0	 0.0	 0.0; % NG
	316	 0.0	 0.0	 261.0	 -261.0	 1.05721	 4.0	 0	 522	 0.5	 0.0	 0.0	 0.0	 0.0	 0.0	 0.0	 0.0	 0.0	 0.0	 0.0	 0.0; % NG
	316	 0.0	 0.0	 38.0	 -38.0	 1.05721	 4.0	 0	 75	 0.5	 0.0	 0.0	 0.0	 0.0	 0.0	 0.0	 0.0	 0.0	 0.0	 0.0	 0.0; % NG
	376	 232.803	 -22.254	 162.0	 -162.0	 1.12	 8.4	 1	 324	 2.7	 0.0	 0.0	 0.0	 0.0	 0.0	 0.0	 0.0	 0.0	 0.0	 0.0	 0.0; % NG
	379	 0.15	 7.0	 21.0	 -21.0	 1.11592	 0.9	 1	 42	 0.15	 0.0	 0.0	 0.0	 0.0	 0.0	 0.0	 0.0	 0.0	 0.0	 0.0	 0.0; % PEL
	379	 0.15	 3.765	 15.0	 -15.0	 1.11592	 0.9	 1	 29	 0.15	 0.0	 0.0	 0.0	 0.0	 0.0	 0.0	 0.0	 0.0	 0.0	 0.0	 0.0; % PEL
	379	 0.15	 7.0	 21.0	 -21.0	 1.11592	 0.9	 1	 42	 0.15	 0.0	 0.0	 0.0	 0.0	 0.0	 0.0	 0.0	 0.0	 0.0	 0.0	 0.0; % PEL
	383	 5.5	 1.215	 38.0	 -38.0	 1.11104	 31.3	 1	 76	 5.5	 0.0	 0.0	 0.0	 0.0	 0.0	 0.0	 0.0	 0.0	 0.0	 0.0	 0.0; % NG
...
];

%% generator cost data
%	2	startup	shutdown	n	c(n-1)	...	c0
mpc.gencost = [
	2	 0.0	 0.0	 3	   0.000000	   1.270780	   0.000000; % NG
	2	 0.0	 0.0	 3	   0.000000	   0.894598	   0.000000; % COW
	2	 0.0	 0.0	 3	   0.000000	   0.954541	   0.000000; % NG
	2	 0.0	 0.0	 3	   0.000000	   1.074384	   0.000000; % COW
	2	 0.0	 0.0	 3	   0.000000	   0.892236	   0.000000; % COW
	2	 0.0	 0.0	 3	   0.000000	   0.952337	   0.000000; % COW
	2	 0.0	 0.0	 3	   0.000000	   0.538758	   0.000000; % COW
	2	 0.0	 0.0	 3	   0.000000	   0.698692	   0.000000; % COW
	2	 0.0	 0.0	 3	   0.000000	   1.121737	   0.000000; % NG
	2	 0.0	 0.0	 3	   0.000000	   1.070383	   0.000000; % NG
	2	 0.0	 0.0	 3	   0.000000	   0.189296	   0.000000; % NUC
	2	 0.0	 0.0	 3	   0.000000	   0.344055	   0.000000; % COW
	2	 0.0	 0.0	 3	   0.000000	   0.593169	   0.000000; % COW
	2	 0.0	 0.0	 3	   0.000000	   0.856506	   0.000000; % COW
	2	 0.0	 0.0	 3	   0.000000	   0.686993	   0.000000; % COW
	2	 0.0	 0.0	 3	   0.000000	   1.240462	   0.000000; % NG
	2	 0.0	 0.0	 3	   0.000000	   0.465065	   0.000000; % COW
	2	 0.0	 0.0	 3	   0.000000	   1.054776	   0.000000; % NG
	2	 0.0	 0.0	 3	   0.000000	   0.969446	   0.000000; % NG
	2	 0.0	 0.0	 3	   0.000000	   1.220504	   0.000000; % NG
	2	 0.0	 0.0	 3	   0.000000	   1.027934	   0.000000; % NG
	2	 0.0	 0.0	 3	   0.000000	   0.866285	   0.000000; % NG
	2	 0.0	 0.0	 3	   0.000000	   0.893765	   0.000000; % COW
	2	 0.0	 0.0	 3	   0.000000	   1.375634	   0.000000; % NG
	2	 0.0	 0.0	 3	   0.000000	   0.988732	   0.000000; % NG
	2	 0.0	 0.0	 3	   0.000000	   0.874833	   0.000000; % COW
	2	 0.0	 0.0	 3	   0.000000	   0.783801	   0.000000; % COW
	2	 0.0	 0.0	 3	   0.000000	   0.626687	   0.000000; % COW
	2	 0.0	 0.0	 3	   0.000000	   0.871186	   0.000000; % NG
	2	 0.0	 0.0	 3	   0.000000	   0.785752	   0.000000; % COW
	2	 0.0	 0.0	 3	   0.000000	   7.177823	   0.000000; % PEL
	2	 0.0	 0.0	 3	   0.000000	   1.151221	   0.000000; % NG
	2	 0.0	 0.0	 3	   0.000000	   0.717422	   0.000000; % COW
	2	 0.0	 0.0	 3	   0.000000	   1.144786	   0.000000; % NG
	2	 0.0	 0.0	 3	   0.000000	   0.673532	   0.000000; % COW
	2	 0.0	 0.0	 3	   0.000000	   1.039053	   0.000000; % NG
	2	 0.0	 0.0	 3	   0.000000	   0.632177	   0.000000; % NG
	2	 0.0	 0.0	 3	   0.000000	   6.750512	   0.000000; % PEL
	2	 0.0	 0.0	 3	   0.000000	   0.760015	   0.000000; % NG
	2	 0.0	 0.0	 3	   0.000000	   1.166053	   0.000000; % NG
	2	 0.0	 0.0	 3	   0.000000	   1.146260	   0.000000; % NG
	2	 0.0	 0.0	 3	   0.000000	   1.037946	   0.000000; % NG
	2	 0.0	 0.0	 3	   0.000000	   0.977715	   0.000000; % NG
	2	 0.0	 0.0	 3	   0.000000	   0.902316	   0.000000; % COW
	2	 0.0	 0.0	 3	   0.000000	   0.954229	   0.000000; % NG
	2	 0.0	 0.0	 3	   0.000000	   0.640812	   0.000000; % NG
	2	 0.0	 0.0	 3	   0.000000	   1.136471	   0.000000; % NG
	2	 0.0	 0.0	 3	   0.000000	   1.351171	   0.000000; % NG
	2	 0.0	 0.0	 3	   0.000000	   1.049285	   0.000000; % COW
	2	 0.0	 0.0	 3	   0.000000	   0.871105	   0.000000; % NG
	2	 0.0	 0.0	 3	   0.000000	   1.438225	   0.000000; % NG
	2	 0.0	 0.0	 3	   0.000000	   1.062510	   0.000000; % NG
	2	 0.0	 0.0	 3	   0.000000	   0.304227	   0.000000; % COW
	2	 0.0	 0.0	 3	   0.000000	   1.059266	   0.000000; % COW
	2	 0.0	 0.0	 3	   0.000000	   0.341074	   0.000000; % COW
	2	 0.0	 0.0	 3	   0.000000	   1.637421	   0.000000; % NG
	2	 0.0	 0.0	 3	   0.000000	   1.091912	   0.000000; % NG
	2	 0.0	 0.0	 3	   0.000000	   1.284427	   0.000000; % NG
	2	 0.0	 0.0	 3	   0.000000	   1.163938	   0.000000; % NG
	2	 0.0	 0.0	 3	   0.000000	   1.064758	   0.000000; % NG
	2	 0.0	 0.0	 3	   0.000000	   1.328395	   0.000000; % NG
	2	 0.0	 0.0	 3	   0.000000	   0.686524	   0.000000; % COW
	2	 0.0	 0.0	 3	   0.000000	   0.706023	   0.000000; % COW
	2	 0.0	 0.0	 3	   0.000000	   0.860954	   0.000000; % NG
	2	 0.0	 0.0	 3	   0.000000	   1.105589	   0.000000; % NG
	2	 0.0	 0.0	 3	   0.000000	   0.820885	   0.000000; % NG
	2	 0.0	 0.0	 3	   0.000000	   0.807997	   0.000000; % NG
	2	 0.0	 0.0	 3	   0.000000	   7.340334	   0.000000; % PEL
	2	 0.0	 0.0	 3	   0.000000	   0.868646	   0.000000; % NG
	2	 0.0	 0.0	 3	   0.000000	   1.146590	   0.000000; % NG
	2	 0.0	 0.0	 3	   0.000000	   0.902658	   0.000000; % COW
	2	 0.0	 0.0	 3	   0.000000	   6.416891	   0.000000; % PEL
	2	 0.0	 0.0	 3	   0.000000	   0.935058	   0.000000; % NG
	2	 0.0	 0.0	 3	   0.000000	   6.728759	   0.000000; % PEL
	2	 0.0	 0.0	 3	   0.000000	   0.876521	   0.000000; % NG
	2	 0.0	 0.0	 3	   0.000000	   1.465984	   0.000000; % NG
	2	 0.0	 0.0	 3	   0.000000	   0.861204	   0.000000; % COW
	2	 0.0	 0.0	 3	   0.000000	   1.125715	   0.000000; % NG
	2	 0.0	 0.0	 3	   0.000000	   6.857586	   0.000000; % PEL
	2	 0.0	 0.0	 3	   0.000000	   1.081616	   0.000000; % NG
	2	 0.0	 0.0	 3	   0.000000	   1.381805	   0.000000; % NG
	2	 0.0	 0.0	 3	   0.000000	   1.092167	   0.000000; % NG
	2	 0.0	 0.0	 3	   0.000000	   1.165735	   0.000000; % NG
	2	 0.0	 0.0	 3	   0.000000	   0.802792	   0.000000; % COW
	2	 0.0	 0.0	 3	   0.000000	   1.340160	   0.000000; % NG
	2	 0.0	 0.0	 3	   0.000000	   6.749217	   0.000000; % PEL
	2	 0.0	 0.0	 3	   0.000000	   7.081366	   0.000000; % PEL
	2	 0.0	 0.0	 3	   0.000000	   1.232802	   0.000000; % NG
	2	 0.0	 0.0	 3	   0.000000	   0.750021	   0.000000; % COW
	2	 0.0	 0.0	 3	   0.000000	   0.570257	   0.000000; % COW
	2	 0.0	 0.0	 3	   0.000000	   1.329703	   0.000000; % NG
	2	 0.0	 0.0	 3	   0.000000	   1.160221	   0.000000; % COW
	2	 0.0	 0.0	 3	   0.000000	   1.377441	   0.000000; % NG
	2	 0.0	 0.0	 3	   0.000000	   0.910879	   0.000000; % NG
	2	 0.0	 0.0	 3	   0.000000	   1.392401	   0.000000; % NG
	2	 0.0	 0.0	 3	   0.000000	   1.120215	   0.000000; % NG
	2	 0.0	 0.0	 3	   0.000000	   1.106881	   0.000000; % NG
	2	 0.0	 0.0	 3	   0.000000	   1.472218	   0.000000; % NG
	2	 0.0	 0.0	 3	   0.000000	   1.611063	   0.000000; % NG
	2	 0.0	 0.0	 3	   0.000000	   0.790578	   0.000000; % NG
	2	 0.0	 0.0	 3	   0.000000	   1.083643	   0.000000; % NG
	2	 0.0	 0.0	 3	   0.000000	   0.475907	   0.000000; % COW
	2	 0.0	 0.0	 3	   0.000000	   1.179943	   0.000000; % NG
	2	 0.0	 0.0	 3	   0.000000	   1.448815	   0.000000; % NG
	2	 0.0	 0.0	 3	   0.000000	   0.893036	   0.000000; % COW
	2	 0.0	 0.0	 3	   0.000000	   1.239423	   0.000000; % NG
	2	 0.0	 0.0	 3	   0.000000	   1.325110	   0.000000; % COW
	2	 0.0	 0.0	 3	   0.000000	   1.123223	   0.000000; % NG
	2	 0.0	 0.0	 3	   0.000000	   1.006223	   0.000000; % NG
	2	 0.0	 0.0	 3	   0.000000	   1.392622	   0.000000; % NG
	2	 0.0	 0.0	 3	   0.000000	   1.103349	   0.000000; % NG
	2	 0.0	 0.0	 3	   0.000000	   1.115964	   0.000000; % COW
	2	 0.0	 0.0	 3	   0.000000	   0.583848	   0.000000; % COW
	2	 0.0	 0.0	 3	   0.000000	   6.840174	   0.000000; % PEL
	2	 0.0	 0.0	 3	   0.000000	   0.910819	   0.000000; % NG
	2	 0.0	 0.0	 3	   0.000000	   0.954990	   0.000000; % NG
	2	 0.0	 0.0	 3	   0.000000	   1.098316	   0.000000; % NG
	2	 0.0	 0.0	 3	   0.000000	   0.496902	   0.000000; % COW
	2	 0.0	 0.0	 3	   0.000000	   0.935189	   0.000000; % NG
	2	 0.0	 0.0	 3	   0.000000	   0.927470	   0.000000; % NG
	2	 0.0	 0.0	 3	   0.000000	   0.651587	   0.000000; % NG
	2	 0.0	 0.0	 3	   0.000000	   0.600168	   0.000000; % COW
	2	 0.0	 0.0	 3	   0.000000	   0.936753	   0.000000; % NG
	2	 0.0	 0.0	 3	   0.000000	   1.118085	   0.000000; % NG
	2	 0.0	 0.0	 3	   0.000000	   0.592486	   0.000000; % NG
	2	 0.0	 0.0	 3	   0.000000	   0.817329	   0.000000; % NG
	2	 0.0	 0.0	 3	   0.000000	   0.871563	   0.000000; % NG
	2	 0.0	 0.0	 3	   0.000000	   0.924184	   0.000000; % NG
	2	 0.0	 0.0	 3	   0.000000	   1.088963	   0.000000; % NG
	2	 0.0	 0.0	 3	   0.000000	   0.663517	   0.000000; % NG
	2	 0.0	 0.0	 3	   0.000000	   1.090228	   0.000000; % NG
	2	 0.0	 0.0	 3	   0.000000	   6.870018	   0.000000; % PEL
	2	 0.0	 0.0	 3	   0.000000	   1.227877	   0.000000; % NG
	2	 0.0	 0.0	 3	   0.000000	   0.815713	   0.000000; % NG
	2	 0.0	 0.0	 3	   0.000000	   0.503973	   0.000000; % COW
	2	 0.0	 0.0	 3	   0.000000	   6.518722	   0.000000; % PEL
	2	 0.0	 0.0	 3	   0.000000	   1.325445	   0.000000; % NG
	2	 0.0	 0.0	 3	   0.000000	   1.337453	   0.000000; % NG
	2	 0.0	 0.0	 3	   0.000000	   0.981096	   0.000000; % NG
	2	 0.0	 0.0	 3	   0.000000	   0.828536	   0.000000; % COW
	2	 0.0	 0.0	 3	   0.000000	   0.539456	   0.000000; % COW
	2	 0.0	 0.0	 3	   0.000000	   0.754685	   0.000000; % NG
	2	 0.0	 0.0	 3	   0.000000	   0.593348	   0.000000; % COW
	2	 0.0	 0.0	 3	   0.000000	   1.096691	   0.000000; % NG
	2	 0.0	 0.0	 3	   0.000000	   1.304997	   0.000000; % NG
	2	 0.0	 0.0	 3	   0.000000	   1.184200	   0.000000; % NG
	2	 0.0	 0.0	 3	   0.000000	   0.596313	   0.000000; % NG
	2	 0.0	 0.0	 3	   0.000000	   0.987504	   0.000000; % NG
	2	 0.0	 0.0	 3	   0.000000	   7.031339	   0.000000; % PEL
	2	 0.0	 0.0	 3	   0.000000	   0.474503	   0.000000; % COW
	2	 0.0	 0.0	 3	   0.000000	   0.912738	   0.000000; % COW
	2	 0.0	 0.0	 3	   0.000000	   0.803748	   0.000000; % NG
	2	 0.0	 0.0	 3	   0.000000	   0.864565	   0.000000; % NG
	2	 0.0	 0.0	 3	   0.000000	   1.272126	   0.000000; % NG
	2	 0.0	 0.0	 3	   0.000000	   0.866112	   0.000000; % NG
	2	 0.0	 0.0	 3	   0.000000	   0.847963	   0.000000; % NG
	2	 0.0	 0.0	 3	   0.000000	   1.115505	   0.000000; % NG
	2	 0.0	 0.0	 3	   0.000000	   0.997359	   0.000000; % NG
	2	 0.0	 0.0	 3	   0.000000	   1.081996	   0.000000; % NG
	2	 0.0	 0.0	 3	   0.000000	   1.054014	   0.000000; % NG
	2	 0.0	 0.0	 3	   0.000000	   0.992056	   0.000000; % NG
	2	 0.0	 0.0	 3	   0.000000	   0.819197	   0.000000; % NG
	2	 0.0	 0.0	 3	   0.000000	   1.032325	   0.000000; % NG
	2	 0.0	 0.0	 3	   0.000000	   0.989749	   0.000000; % NG
	2	 0.0	 0.0	 3	   0.000000	   1.110593	   0.000000; % NG
	2	 0.0	 0.0	 3	   0.000000	   1.130363	   0.000000; % NG
	2	 0.0	 0.0	 3	   0.000000	   1.310065	   0.000000; % NG
	2	 0.0	 0.0	 3	   0.000000	   0.937541	   0.000000; % NG
	2	 0.0	 0.0	 3	   0.000000	   1.010843	   0.000000; % COW
	2	 0.0	 0.0	 3	   0.000000	   1.166467	   0.000000; % NG
	2	 0.0	 0.0	 3	   0.000000	   0.871797	   0.000000; % NG
	2	 0.0	 0.0	 3	   0.000000	   1.166991	   0.000000; % NG
	2	 0.0	 0.0	 3	   0.000000	   1.034654	   0.000000; % NG
	2	 0.0	 0.0	 3	   0.000000	   0.684321	   0.000000; % COW
	2	 0.0	 0.0	 3	   0.000000	   1.053621	   0.000000; % NG
	2	 0.0	 0.0	 3	   0.000000	   0.999202	   0.000000; % NG
	2	 0.0	 0.0	 3	   0.000000	   0.656274	   0.000000; % COW
	2	 0.0	 0.0	 3	   0.000000	   1.111163	   0.000000; % NG
	2	 0.0	 0.0	 3	   0.000000	   0.723749	   0.000000; % COW
	2	 0.0	 0.0	 3	   0.000000	   0.886569	   0.000000; % COW
	2	 0.0	 0.0	 3	   0.000000	   1.251327	   0.000000; % NG
	2	 0.0	 0.0	 3	   0.000000	   1.194106	   0.000000; % NG
	2	 0.0	 0.0	 3	   0.000000	   1.097447	   0.000000; % NG
	2	 0.0	 0.0	 3	   0.000000	   0.946498	   0.000000; % NG
	2	 0.0	 0.0	 3	   0.000000	   6.997475	   0.000000; % PEL
	2	 0.0	 0.0	 3	   0.000000	   7.288488	   0.000000; % PEL
	2	 0.0	 0.0	 3	   0.000000	   0.806794	   0.000000; % NG
	2	 0.0	 0.0	 3	   0.000000	   0.891966	   0.000000; % NG
	2	 0.0	 0.0	 3	   0.000000	   1.199160	   0.000000; % NG
	2	 0.0	 0.0	 3	   0.000000	   1.094753	   0.000000; % NG
	2	 0.0	 0.0	 3	   0.000000	   1.062169	   0.000000; % NG
	2	 0.0	 0.0	 3	   0.000000	   1.410623	   0.000000; % NG
	2	 0.0	 0.0	 3	   0.000000	   1.107535	   0.000000; % NG
	2	 0.0	 0.0	 3	   0.000000	   0.988387	   0.000000; % NG
	2	 0.0	 0.0	 3	   0.000000	   1.278955	   0.000000; % NG
	2	 0.0	 0.0	 3	   0.000000	   0.808919	   0.000000; % NG
	2	 0.0	 0.0	 3	   0.000000	   7.006732	   0.000000; % PEL
	2	 0.0	 0.0	 3	   0.000000	   6.606668	   0.000000; % PEL
	2	 0.0	 0.0	 3	   0.000000	   6.680325	   0.000000; % PEL
	2	 0.0	 0.0	 3	   0.000000	   1.218710	   0.000000; % NG
...
];

%% branch data
%	fbus	tbus	r	x	b	rateA	rateB	rateC	ratio	angle	status	angmin	angmax
mpc.branch = [
	10330	 10331	 1e-05	 8e-05	 0.0	 183.0	 183.0	 183.0	 0.0	 0.0	 1	 -30.0	 30.0;
	10300	 10355	 0.05932	 0.20245	 0.0	 122.0	 122.0	 122.0	 0.0	 0.0	 1	 -30.0	 30.0;
	10300	 10360	 0.02058	 0.05185	 0.0	 106.0	 106.0	 106.0	 0.0	 0.0	 1	 -30.0	 30.0;
	10367	 10201	 2e-05	 -0.04958	 0.0	 659.0	 200.0	 200.0	 0.999	 0.0	 1	 -30.0	 30.0;
	10367	 10202	 6e-05	 0.08346	 0.0	 391.0	 200.0	 200.0	 0.99999	 0.0	 1	 -30.0	 30.0;
	10366	 10367	 0.0026	 0.25917	 0.0	 127.0	 127.0	 127.0	 0.99999	 0.0	 1	 -30.0	 30.0;
	10368	 10215	 2e-05	 -0.04961	 0.0	 659.0	 200.0	 200.0	 0.999	 0.0	 1	 -30.0	 30.0;
	10368	 10216	 6e-05	 0.08373	 0.0	 390.0	 200.0	 200.0	 0.99999	 0.0	 1	 -30.0	 30.0;
	10369	 10368	 0.0026	 0.26125	 0.0	 126.0	 126.0	 126.0	 0.99999	 0.0	 1	 -30.0	 30.0;
	10090	 10083	 8e-05	 0.00079	 0.41456	 736.0	 736.0	 736.0	 0.0	 0.0	 1	 -30.0	 30.0;
	10138	 10164	 0.00168	 0.01733	 0.75504	 752.0	 752.0	 752.0	 0.0	 0.0	 1	 -30.0	 30.0;
	10139	 10109	 0.00071	 0.00594	 0.27872	 680.0	 680.0	 680.0	 0.0	 0.0	 1	 -30.0	 30.0;
	10139	 10144	 0.00075	 0.00681	 0.312	 707.0	 707.0	 707.0	 0.0	 0.0	 1	 -30.0	 30.0;
	10139	 10153	 0.00194	 0.02	 0.8336	 751.0	 751.0	 751.0	 0.0	 0.0	 1	 -30.0	 30.0;
	10140	 10110	 0.00071	 0.00594	 0.27872	 680.0	 680.0	 680.0	 0.0	 0.0	 1	 -30.0	 30.0;
	10140	 10143	 0.00075	 0.00681	 0.312	 707.0	 707.0	 707.0	 0.0	 0.0	 1	 -30.0	 30.0;
	10140	 10153	 0.00194	 0.02	 0.8336	 751.0	 751.0	 751.0	 0.0	 0.0	 1	 -30.0	 30.0;
	10141	 10153	 0.00233	 0.01696	 0.70784	 637.0	 637.0	 637.0	 0.0	 0.0	 1	 -30.0	 30.0;
	10090	 10085	 0.00017	 0.00148	 1.23008	 693.0	 693.0	 693.0	 0.0	 0.0	 1	 -30.0	 30.0;
	10141	 10158	 0.00204	 0.01707	 0.71344	 680.0	 680.0	 680.0	 0.0	 0.0	 1	 -30.0	 30.0;
	10141	 10158	 0.00204	 0.01707	 0.71344	 680.0	 680.0	 680.0	 0.0	 0.0	 1	 -30.0	 30.0;
	10143	 10144	 1e-05	 6e-05	 0.0	 581.0	 581.0	 581.0	 0.0	 0.0	 1	 -30.0	 30.0;
	10143	 10153	 0.00169	 0.01381	 0.6496	 673.0	 673.0	 673.0	 0.0	 0.0	 1	 -30.0	 30.0;
	10143	 10156	 0.00119	 0.00969	 0.4544	 672.0	 672.0	 672.0	 0.0	 0.0	 1	 -30.0	 30.0;
	10144	 10126	 0.00306	 0.02537	 1.19168	 677.0	 677.0	 677.0	 0.0	 0.0	 1	 -30.0	 30.0;
	10144	 10153	 0.00169	 0.01381	 0.6496	 673.0	 673.0	 673.0	 0.0	 0.0	 1	 -30.0	 30.0;
	10144	 10165	 0.00244	 0.02044	 0.9584	 681.0	 681.0	 681.0	 0.0	 0.0	 1	 -30.0	 30.0;
	10091	 10090	 9e-05	 0.00106	 1.10432	 801.0	 801.0	 801.0	 0.0	 0.0	 1	 -30.0	 30.0;
	10145	 10147	 0.00194	 0.01606	 0.75456	 677.0	 677.0	 677.0	 0.0	 0.0	 1	 -30.0	 30.0;
	10145	 10158	 0.00189	 0.01232	 0.61088	 604.0	 604.0	 604.0	 0.0	 0.0	 1	 -30.0	 30.0;
	10171	 10094	 0.0	 6e-05	 0.0	 99999.0	 1593.0	 1593.0	 0.0	 0.0	 1	 -30.0	 30.0;
	10145	 10082	 0.00091	 0.00923	 0.39197	 746.0	 746.0	 746.0	 0.0	 0.0	 1	 -30.0	 30.0;
	10145	 10082	 0.00091	 0.00923	 0.39197	 746.0	 746.0	 746.0	 0.0	 0.0	 1	 -30.0	 30.0;
	10146	 10154	 0.00503	 0.01845	 0.05812	 253.0	 253.0	 253.0	 0.0	 0.0	 1	 -30.0	 30.0;
	10172	 10095	 0.0	 6e-05	 0.0	 99999.0	 1386.0	 1386.0	 0.0	 0.0	 1	 -30.0	 30.0;
...